                                   MODFLOW 6
                U.S. GEOLOGICAL SURVEY MODULAR HYDROLOGIC MODEL
                          GROUNDWATER FLOW MODEL (GWF)
                            VERSION 6.6.0 12/20/2024

   MODFLOW 6 compiled Dec 31 2024 17:10:16 with Intel(R) Fortran Intel(R) 64
   Compiler Classic for applications running on Intel(R) 64, Version 2021.7.0
                             Build 20220726_000000

This software has been approved for release by the U.S. Geological 
Survey (USGS). Although the software has been subjected to rigorous 
review, the USGS reserves the right to update the software as needed 
pursuant to further analysis and review. No warranty, expressed or 
implied, is made by the USGS or the U.S. Government as to the 
functionality of the software and related material nor shall the 
fact of release constitute any such warranty. Furthermore, the 
software is released on condition that neither the USGS nor the U.S. 
Government shall be held liable for any damages resulting from its 
authorized or unauthorized use. Also refer to the USGS Water 
Resources Software User Rights Notice for complete use, copyright, 
and distribution information.


As a work of the United States Government, this USGS product is 
in the public domain within the United States. You can copy, 
modify, distribute, and perform the work, even for commercial 
purposes, all without asking permission. Additionally, USGS 
waives copyright and related rights in the work worldwide 
through CC0 1.0 Universal Public Domain Dedication 
(https://creativecommons.org/publicdomain/zero/1.0/).

The following GNU Lesser General Public License (LGPL) libraries
are used in this USGS product:

    SPARSKIT version 2.0
      ilut, luson, and qsplit 
      (https://www-users.cse.umn.edu/~saad/software/SPARSKIT/)

    RCM - Reverse Cuthill McKee Ordering
      (https://people.math.sc.edu/Burkardt/f_src/rcm/rcm.html)

    BLAS - Basic Linear Algebra Subprograms Level 1
      (https://people.math.sc.edu/Burkardt/f_src/blas1_d/blas1_d.html)

    SPARSEKIT - Sparse Matrix Utility Package
      amux, dperm, dvperm, rperm, and cperm
      (https://people.sc.fsu.edu/~jburkardt/f77_src/sparsekit/sparsekit.html)

The following BSD-3 License libraries are used in this USGS product:

    Modern Fortran DAG Library
      Copyright (c) 2018, Jacob Williams
      All rights reserved.
      (https://github.com/jacobwilliams/daglib)

MODFLOW 6 compiler options: /O2 /heap-arrays:0 /fpe:0 /traceback /nologo /fpp
/c /module:win64\mod_mf6\ /object:win64\obj_mf6\

System command used to initiate simulation:
C:\Users\luiggi\Documents\GitSites\MODFLOW_API\emsdatasets\bin\mf6.exe

MODFLOW was compiled using uniform precision.

Real Variables
  KIND: 8
  TINY (smallest non-zero value):    2.225074-308
  HUGE (largest value):    1.797693+308
  PRECISION: 15
  SIZE IN BITS: 64

Integer Variables
  KIND: 4
  HUGE (largest value): 2147483647
  SIZE IN BITS: 32

Long Integer Variables
  KIND: 8
  HUGE (largest value): 9223372036854775807
  SIZE IN BITS: 64

Logical Variables
  KIND: 4
  SIZE IN BITS: 32
 
 NAMEFILE OPTIONS:
    NEWTON-RAPHSON method enabled for the model.
    NEWTON-RAPHSON UNDER-RELAXATION based on the bottom elevation of the model will be applied to the model.
    FLOWS WILL BE SAVED TO BUDGET FILE SPECIFIED IN OUTPUT CONTROL
 END NAMEFILE OPTIONS:

 DIS -- STRUCTURED GRID DISCRETIZATION PACKAGE, VERSION 2 : 3/27/2014 - INPUT READ FROM MEMPATH: __INPUT__/SAGEHENMODEL/DIS                        


 NPF -- NODE PROPERTY FLOW PACKAGE, VERSION 1, 3/30/2015 INPUT READ FROM MEMPATH: __INPUT__/SAGEHENMODEL/NPF                        


 IC -- Initial Conditions Package, Version 8, 3/28/2015 input read from mempath: __INPUT__/SAGEHENMODEL/IC                         


 Setting Discretization Options
 End Setting Discretization Options

 Setting Discretization Dimensions
    NLAY = 2
    NROW = 73
    NCOL = 81
 End Setting Discretization Dimensions

 Setting Discretization Griddata
    DELR set from input file
    DELC set from input file
    TOP set from input file
    BOTM set from input file
    IDOMAIN set from input file
 End Setting Discretization Griddata


 The specified IDOMAIN results in a reduced number of cells.
 Number of user nodes: 11826
 Number of nodes in solution: 6784


 Setting NPF Options
    Alternative cell averaging [1=logarithmic, 2=AMT-LMK, 3=AMT-HMK] set to: 3
 End Setting NPF Options

 Setting NPF Griddata
    ICELLTYPE set from input file
    K set from input file
    K33 set from input file
    K22 not provided.  Setting K22 = K.
 End Setting NPF Griddata


 DRN   -- DRN PACKAGE, VERSION 8, 2/22/2014 INPUT READ FROM MEMPATH: __INPUT__/SAGEHENMODEL/DRN-1                      

 PROCESSING DRN BASE OPTIONS
    FLOWS WILL BE SAVED TO BUDGET FILE SPECIFIED IN OUTPUT CONTROL
 END OF DRN BASE OPTIONS

 PROCESSING DRN OPTIONS
    MOVER OPTION ENABLED
 END OF DRN OPTIONS

 PROCESSING DRN BASE DIMENSIONS
    MAXBOUND =    3195
 END OF DRN BASE DIMENSIONS

 CHD   -- CHD PACKAGE, VERSION 8, 2/22/2014 INPUT READ FROM MEMPATH: __INPUT__/SAGEHENMODEL/CHD-1                      

 PROCESSING CHD BASE OPTIONS
 END OF CHD BASE OPTIONS

 PROCESSING CHD BASE DIMENSIONS
    MAXBOUND =       6
 END OF CHD BASE DIMENSIONS

 SFR   -- SFR PACKAGE, VERSION 8, 2/22/2014 INPUT READ FROM UNIT 1014
 # File generated by Flopy version 3.3.3 on 02/05/2021 at 13:07:20.

 PROCESSING SFR OPTIONS
    SFR BOUNDARIES HAVE NAMES IN LAST COLUMN.
    FLOWS WILL BE SAVED TO BUDGET FILE SPECIFIED IN OUTPUT CONTROL

 OPENED output/gwf_sagehen-gsf.sfr.cbc
 FILE TYPE:DATA(BINARY)   UNIT 1018   STATUS:REPLACE             
 FORMAT:UNFORMATTED            ACCESS:STREAM              
 ACTION:READWRITE           

    SFR  BUDGET  WILL BE SAVED TO FILE: output/gwf_sagehen-gsf.sfr.cbc
    OPENED ON UNIT: 1018
    MOVER OPTION ENABLED
 END OF SFR OPTIONS

 PROCESSING SFR DIMENSIONS
    NREACHES = 201
 END OF SFR DIMENSIONS

 OPENED ../common/sfr_packagedata.txt
 FILE TYPE:OPEN/CLOSE   UNIT 1019   STATUS:OLD                 
 FORMAT:FORMATTED              ACCESS:SEQUENTIAL          
 ACTION:READ                


 PROCESSING SFR PACKAGEDATA
 END OF SFR PACKAGEDATA

 OPENED ../common/sfr_connectiondata.txt
 FILE TYPE:OPEN/CLOSE   UNIT 1020   STATUS:OLD                 
 FORMAT:FORMATTED              ACCESS:SEQUENTIAL          
 ACTION:READ                


 PROCESSING SFR CONNECTIONDATA
 END OF SFR CONNECTIONDATA

 UZF   -- UZF CELLS PACKAGE, VERSION 8, 2/22/2014 INPUT READ FROM UNIT 1015
 # File generated by Flopy version 3.3.3 on 02/05/2021 at 13:07:20.

 PROCESSING UZF CELLS OPTIONS
    UZF CELLS BOUNDARIES HAVE NAMES IN LAST COLUMN.
    FLOWS WILL BE SAVED TO BUDGET FILE SPECIFIED IN OUTPUT CONTROL

 OPENED output/gwf_sagehen-gsf.water_content.bin
 FILE TYPE:DATA(BINARY)   UNIT 1021   STATUS:REPLACE             
 FORMAT:UNFORMATTED            ACCESS:STREAM              
 ACTION:READWRITE           

    UZF  WATER-CONTENT  WILL BE SAVED TO FILE: output/gwf_sagehen-gsf.water_content.bin
    OPENED ON UNIT: 1021

 OPENED output/gwf_sagehen-gsf.uzf.cbc
 FILE TYPE:DATA(BINARY)   UNIT 1022   STATUS:REPLACE             
 FORMAT:UNFORMATTED            ACCESS:STREAM              
 ACTION:READWRITE           

    UZF  BUDGET  WILL BE SAVED TO FILE: output/gwf_sagehen-gsf.uzf.cbc
    OPENED ON UNIT: 1022
    ET WILL BE SIMULATED WITHIN UZ AND GW ZONES, WITH LINEAR GWET IF OPTION NOT SPECIFIED OTHERWISE.
    GROUNDWATER ET FUNCTION WILL BE LINEAR.
 #SIMULATE_GWSEEP
 END OF UZF CELLS OPTIONS

 PROCESSING UZF CELLS DIMENSIONS
    NUZFCELLS = 6772
    NTRAILWAVES = 15
    NTRAILSETS = 150
 END OF UZF CELLS DIMENSIONS

 OPENED ../common/uzf_packagedata.txt
 FILE TYPE:OPEN/CLOSE   UNIT 1023   STATUS:OLD                 
 FORMAT:FORMATTED              ACCESS:SEQUENTIAL          
 ACTION:READ                


 PROCESSING UZF CELLS PACKAGEDATA
 END OF UZF CELLS PACKAGEDATA
    STRT set from input file

 STO -- STORAGE PACKAGE, VERSION 1, 5/19/2014 INPUT READ FROM MEMPATH: __INPUT__/SAGEHENMODEL/STO                        


 PROCESSING STORAGE OPTIONS
 END OF STORAGE OPTIONS

 MVR -- WATER MOVER PACKAGE, VERSION 8, 1/29/2016 INPUT READ FROM UNIT 1010
 # File generated by Flopy version 3.3.3 on 04/05/2021 at 10:12:30.
 PROCESSING MVR OPTIONS

 OPENED output/gwf_sagehen-gsf.mvr.bud
 FILE TYPE:DATA(BINARY)   UNIT 1026   STATUS:REPLACE             
 FORMAT:UNFORMATTED            ACCESS:STREAM              
 ACTION:READWRITE           

    MVR  BUDGET  WILL BE SAVED TO FILE: output/gwf_sagehen-gsf.mvr.bud
    OPENED ON UNIT: 1026
 END OF MVR OPTIONS

 PROCESSING MVR DIMENSIONS
    MAXMVR = 9954
    MAXPACKAGES = 3
 END OF MVR DIMENSIONS

 PROCESSING MVR PACKAGES
   INCLUDING PACKAGE: SAGEHENMODEL/UZF-1
   INCLUDING PACKAGE: SAGEHENMODEL/SFR-1
   INCLUDING PACKAGE: SAGEHENMODEL/DRN-1
 END OF MVR PACKAGES
    BINARY GRID INFORMATION WILL BE WRITTEN TO:
      UNIT NUMBER: 1027
      FILE NAME: ../common/gwf_sagehen-gsf.dis.grb

 OPENED ../common/gwf_sagehen-gsf.dis.grb
 FILE TYPE:DATA(BINARY)   UNIT 1027   STATUS:REPLACE             
 FORMAT:UNFORMATTED            ACCESS:STREAM              
 ACTION:READWRITE           

      THE LAST TIME STEP WILL BE PRINTED
      THE LAST TIME STEP WILL BE PRINTED
 # File generated by Flopy version 3.3.3 on 02/05/2021 at 13:07:20.

 PROCESSING OC OPTIONS

    BUDGET INFORMATION WILL BE WRITTEN TO:
      UNIT NUMBER: 1028
      FILE NAME: output/gwf_sagehen-gsf.cbc

 OPENED output/gwf_sagehen-gsf.cbc
 FILE TYPE:DATA(BINARY)   UNIT 1028   STATUS:REPLACE             
 FORMAT:UNFORMATTED            ACCESS:STREAM              
 ACTION:READWRITE           

    HEAD INFORMATION WILL BE WRITTEN TO:
      UNIT NUMBER: 1029
      FILE NAME: output/gwf_sagehen-gsf.hds

 OPENED output/gwf_sagehen-gsf.hds
 FILE TYPE:DATA(BINARY)   UNIT 1029   STATUS:REPLACE             
 FORMAT:UNFORMATTED            ACCESS:STREAM              
 ACTION:READWRITE           

 END OF OC OPTIONS

start timestep kper="1" kstp="1" mode="normal"


 BEGIN READING OUTPUT CONTROL FOR STRESS PERIOD 1
      ALL TIME STEPS WILL BE SAVED
      ALL TIME STEPS WILL BE SAVED
      ALL TIME STEPS WILL BE PRINTED

 END READING OUTPUT CONTROL FOR STRESS PERIOD 1


 PROCESSING STORAGE PERIOD DATA
 END PROCESSING STORAGE PERIOD DATA


 STRESS PERIOD 1 IS STEADY-STATE


 OPENED ../common/mvr_perioddata.txt
 FILE TYPE:OPEN/CLOSE   UNIT 1030   STATUS:OLD                 
 FORMAT:FORMATTED              ACCESS:SEQUENTIAL          
 ACTION:READ                


  READING WATER MOVERS FOR PERIOD 1

 END OF DATA FOR PERIOD      1

    9954 MOVERS READ FOR PERIOD 1

 REUSING SFRS FROM LAST STRESS PERIOD
 UBDSV1 SAVING           STO-SS ON UNIT   1028 AT TIME STEP      1, STRESS PERIOD      1
 UBDSV1 SAVING           STO-SY ON UNIT   1028 AT TIME STEP      1, STRESS PERIOD      1
 UBDSV1 SAVING     FLOW-JA-FACE ON UNIT   1028 AT TIME STEP      1, STRESS PERIOD      1
 UBDSV06 SAVING              DRN IN MODEL SAGEHENMODEL     PACKAGE SAGEHENMODEL    CONNECTED TO MODEL SAGEHENMODEL     PACKAGE DRN-1            ON UNIT   1028 AT TIME STEP      1, STRESS PERIOD      1
 UBDSV06 SAVING       DRN-TO-MVR IN MODEL SAGEHENMODEL     PACKAGE SAGEHENMODEL    CONNECTED TO MODEL SAGEHENMODEL     PACKAGE DRN-1            ON UNIT   1028 AT TIME STEP      1, STRESS PERIOD      1
 UBDSV06 SAVING              CHD IN MODEL SAGEHENMODEL     PACKAGE SAGEHENMODEL    CONNECTED TO MODEL SAGEHENMODEL     PACKAGE CHD-1            ON UNIT   1028 AT TIME STEP      1, STRESS PERIOD      1
 UBDSV06 SAVING              SFR IN MODEL SAGEHENMODEL     PACKAGE SAGEHENMODEL    CONNECTED TO MODEL SAGEHENMODEL     PACKAGE SFR-1            ON UNIT   1028 AT TIME STEP      1, STRESS PERIOD      1
 UBDSV06 SAVING        UZF-GWRCH IN MODEL SAGEHENMODEL     PACKAGE SAGEHENMODEL    CONNECTED TO MODEL SAGEHENMODEL     PACKAGE UZF-1            ON UNIT   1028 AT TIME STEP      1, STRESS PERIOD      1
 UBDSV06 SAVING         UZF-GWET IN MODEL SAGEHENMODEL     PACKAGE SAGEHENMODEL    CONNECTED TO MODEL SAGEHENMODEL     PACKAGE UZF-1            ON UNIT   1028 AT TIME STEP      1, STRESS PERIOD      1
 UBDSV06 SAVING     FLOW-JA-FACE IN MODEL SAGEHENMODEL     PACKAGE SFR-1           CONNECTED TO MODEL SAGEHENMODEL     PACKAGE SFR-1            ON UNIT   1018 AT TIME STEP      1, STRESS PERIOD      1
 UBDSV06 SAVING              GWF IN MODEL SAGEHENMODEL     PACKAGE SFR-1           CONNECTED TO MODEL SAGEHENMODEL     PACKAGE SAGEHENMODEL     ON UNIT   1018 AT TIME STEP      1, STRESS PERIOD      1
 UBDSV06 SAVING         RAINFALL IN MODEL SAGEHENMODEL     PACKAGE SFR-1           CONNECTED TO MODEL SAGEHENMODEL     PACKAGE SFR-1            ON UNIT   1018 AT TIME STEP      1, STRESS PERIOD      1
 UBDSV06 SAVING      EVAPORATION IN MODEL SAGEHENMODEL     PACKAGE SFR-1           CONNECTED TO MODEL SAGEHENMODEL     PACKAGE SFR-1            ON UNIT   1018 AT TIME STEP      1, STRESS PERIOD      1
 UBDSV06 SAVING           RUNOFF IN MODEL SAGEHENMODEL     PACKAGE SFR-1           CONNECTED TO MODEL SAGEHENMODEL     PACKAGE SFR-1            ON UNIT   1018 AT TIME STEP      1, STRESS PERIOD      1
 UBDSV06 SAVING       EXT-INFLOW IN MODEL SAGEHENMODEL     PACKAGE SFR-1           CONNECTED TO MODEL SAGEHENMODEL     PACKAGE SFR-1            ON UNIT   1018 AT TIME STEP      1, STRESS PERIOD      1
 UBDSV06 SAVING      EXT-OUTFLOW IN MODEL SAGEHENMODEL     PACKAGE SFR-1           CONNECTED TO MODEL SAGEHENMODEL     PACKAGE SFR-1            ON UNIT   1018 AT TIME STEP      1, STRESS PERIOD      1
 UBDSV06 SAVING          STORAGE IN MODEL SAGEHENMODEL     PACKAGE SFR-1           CONNECTED TO MODEL SAGEHENMODEL     PACKAGE SFR-1            ON UNIT   1018 AT TIME STEP      1, STRESS PERIOD      1
 UBDSV06 SAVING         FROM-MVR IN MODEL SAGEHENMODEL     PACKAGE SFR-1           CONNECTED TO MODEL SAGEHENMODEL     PACKAGE SFR-1            ON UNIT   1018 AT TIME STEP      1, STRESS PERIOD      1
 UBDSV06 SAVING           TO-MVR IN MODEL SAGEHENMODEL     PACKAGE SFR-1           CONNECTED TO MODEL SAGEHENMODEL     PACKAGE SFR-1            ON UNIT   1018 AT TIME STEP      1, STRESS PERIOD      1
 UBDSV06 SAVING     FLOW-JA-FACE IN MODEL SAGEHENMODEL     PACKAGE UZF-1           CONNECTED TO MODEL SAGEHENMODEL     PACKAGE UZF-1            ON UNIT   1022 AT TIME STEP      1, STRESS PERIOD      1
 UBDSV06 SAVING              GWF IN MODEL SAGEHENMODEL     PACKAGE UZF-1           CONNECTED TO MODEL SAGEHENMODEL     PACKAGE SAGEHENMODEL     ON UNIT   1022 AT TIME STEP      1, STRESS PERIOD      1
 UBDSV06 SAVING     INFILTRATION IN MODEL SAGEHENMODEL     PACKAGE UZF-1           CONNECTED TO MODEL SAGEHENMODEL     PACKAGE UZF-1            ON UNIT   1022 AT TIME STEP      1, STRESS PERIOD      1
 UBDSV06 SAVING          REJ-INF IN MODEL SAGEHENMODEL     PACKAGE UZF-1           CONNECTED TO MODEL SAGEHENMODEL     PACKAGE UZF-1            ON UNIT   1022 AT TIME STEP      1, STRESS PERIOD      1
 UBDSV06 SAVING             UZET IN MODEL SAGEHENMODEL     PACKAGE UZF-1           CONNECTED TO MODEL SAGEHENMODEL     PACKAGE UZF-1            ON UNIT   1022 AT TIME STEP      1, STRESS PERIOD      1
 UBDSV06 SAVING          STORAGE IN MODEL SAGEHENMODEL     PACKAGE UZF-1           CONNECTED TO MODEL SAGEHENMODEL     PACKAGE UZF-1            ON UNIT   1022 AT TIME STEP      1, STRESS PERIOD      1
 UBDSV06 SAVING         FROM-MVR IN MODEL SAGEHENMODEL     PACKAGE UZF-1           CONNECTED TO MODEL SAGEHENMODEL     PACKAGE UZF-1            ON UNIT   1022 AT TIME STEP      1, STRESS PERIOD      1
 UBDSV06 SAVING   REJ-INF-TO-MVR IN MODEL SAGEHENMODEL     PACKAGE UZF-1           CONNECTED TO MODEL SAGEHENMODEL     PACKAGE UZF-1            ON UNIT   1022 AT TIME STEP      1, STRESS PERIOD      1
 UBDSV06 SAVING       MOVER-FLOW IN MODEL SAGEHENMODEL     PACKAGE UZF-1           CONNECTED TO MODEL SAGEHENMODEL     PACKAGE UZF-1            ON UNIT   1026 AT TIME STEP      1, STRESS PERIOD      1
 UBDSV06 SAVING       MOVER-FLOW IN MODEL SAGEHENMODEL     PACKAGE UZF-1           CONNECTED TO MODEL SAGEHENMODEL     PACKAGE SFR-1            ON UNIT   1026 AT TIME STEP      1, STRESS PERIOD      1
 UBDSV06 SAVING       MOVER-FLOW IN MODEL SAGEHENMODEL     PACKAGE UZF-1           CONNECTED TO MODEL SAGEHENMODEL     PACKAGE DRN-1            ON UNIT   1026 AT TIME STEP      1, STRESS PERIOD      1
 UBDSV06 SAVING       MOVER-FLOW IN MODEL SAGEHENMODEL     PACKAGE SFR-1           CONNECTED TO MODEL SAGEHENMODEL     PACKAGE UZF-1            ON UNIT   1026 AT TIME STEP      1, STRESS PERIOD      1
 UBDSV06 SAVING       MOVER-FLOW IN MODEL SAGEHENMODEL     PACKAGE SFR-1           CONNECTED TO MODEL SAGEHENMODEL     PACKAGE SFR-1            ON UNIT   1026 AT TIME STEP      1, STRESS PERIOD      1
 UBDSV06 SAVING       MOVER-FLOW IN MODEL SAGEHENMODEL     PACKAGE SFR-1           CONNECTED TO MODEL SAGEHENMODEL     PACKAGE DRN-1            ON UNIT   1026 AT TIME STEP      1, STRESS PERIOD      1
 UBDSV06 SAVING       MOVER-FLOW IN MODEL SAGEHENMODEL     PACKAGE DRN-1           CONNECTED TO MODEL SAGEHENMODEL     PACKAGE UZF-1            ON UNIT   1026 AT TIME STEP      1, STRESS PERIOD      1
 UBDSV06 SAVING       MOVER-FLOW IN MODEL SAGEHENMODEL     PACKAGE DRN-1           CONNECTED TO MODEL SAGEHENMODEL     PACKAGE SFR-1            ON UNIT   1026 AT TIME STEP      1, STRESS PERIOD      1
 UBDSV06 SAVING       MOVER-FLOW IN MODEL SAGEHENMODEL     PACKAGE DRN-1           CONNECTED TO MODEL SAGEHENMODEL     PACKAGE DRN-1            ON UNIT   1026 AT TIME STEP      1, STRESS PERIOD      1

 HEAD WILL BE SAVED ON UNIT 1029 AT END OF TIME STEP    1, STRESS PERIOD    1


  SFR-1 BUDGET FOR ENTIRE MODEL AT END OF TIME STEP    1, STRESS PERIOD   1
  ------------------------------------------------------------------------------

     CUMULATIVE SFR-1      L**3       RATES FOR THIS TIME STEP      L**3/T
     ------------------                 ------------------------

           IN:                                      IN:
           ---                                      ---
                 GWF =        8561.5478                   GWF =        8561.5478
            RAINFALL =           0.0000              RAINFALL =           0.0000
         EVAPORATION =           0.0000           EVAPORATION =           0.0000
              RUNOFF =           0.0000                RUNOFF =           0.0000
          EXT-INFLOW =           0.0000            EXT-INFLOW =           0.0000
         EXT-OUTFLOW =           0.0000           EXT-OUTFLOW =           0.0000
             STORAGE =           0.0000               STORAGE =           0.0000
            FROM-MVR =        3736.4307              FROM-MVR =        3736.4307
              TO-MVR =           0.0000                TO-MVR =           0.0000

            TOTAL IN =       12297.9786              TOTAL IN =       12297.9786

          OUT:                                     OUT:
          ----                                     ----
                 GWF =        8082.5871                   GWF =        8082.5871
            RAINFALL =           0.0000              RAINFALL =           0.0000
         EVAPORATION =           0.0000           EVAPORATION =           0.0000
              RUNOFF =           0.0000                RUNOFF =           0.0000
          EXT-INFLOW =           0.0000            EXT-INFLOW =           0.0000
         EXT-OUTFLOW =        4215.3915           EXT-OUTFLOW =        4215.3915
             STORAGE =           0.0000               STORAGE =           0.0000
            FROM-MVR =           0.0000              FROM-MVR =           0.0000
              TO-MVR =           0.0000                TO-MVR =           0.0000

           TOTAL OUT =       12297.9786             TOTAL OUT =       12297.9786

            IN - OUT =      -1.0914E-11              IN - OUT =      -1.0914E-11

 PERCENT DISCREPANCY =          -0.00     PERCENT DISCREPANCY =          -0.00



  UZF-1 BUDGET FOR ENTIRE MODEL AT END OF TIME STEP    1, STRESS PERIOD   1
  ------------------------------------------------------------------------------

     CUMULATIVE UZF-1      L**3       RATES FOR THIS TIME STEP      L**3/T
     ------------------                 ------------------------

           IN:                                      IN:
           ---                                      ---
                 GWF =           0.0000                   GWF =           0.0000
        INFILTRATION =       27704.5920          INFILTRATION =       27704.5920
             REJ-INF =           0.0000               REJ-INF =           0.0000
                UZET =           0.0000                  UZET =           0.0000
             STORAGE =           0.0000               STORAGE =           0.0000
            FROM-MVR =           0.0000              FROM-MVR =           0.0000
      REJ-INF-TO-MVR =           0.0000        REJ-INF-TO-MVR =           0.0000

            TOTAL IN =       27704.5920              TOTAL IN =       27704.5920

          OUT:                                     OUT:
          ----                                     ----
                 GWF =       25112.4955                   GWF =       25112.4955
        INFILTRATION =           0.0000          INFILTRATION =           0.0000
             REJ-INF =           6.9858               REJ-INF =           6.9858
                UZET =           0.0000                  UZET =           0.0000
             STORAGE =           0.0000               STORAGE =           0.0000
            FROM-MVR =           0.0000              FROM-MVR =           0.0000
      REJ-INF-TO-MVR =        2585.1111        REJ-INF-TO-MVR =        2585.1111

           TOTAL OUT =       27704.5924             TOTAL OUT =       27704.5924

            IN - OUT =      -3.7420E-04              IN - OUT =      -3.7420E-04

 PERCENT DISCREPANCY =          -0.00     PERCENT DISCREPANCY =          -0.00



  WATER MOVER BUDGET FOR ENTIRE MODEL AT END OF TIME STEP    1, STRESS PERIOD   1
  ------------------------------------------------------------------------------

     CUMULATIVE WATER MOVER      L**3       RATES FOR THIS TIME STEP      L**3/T
     ------------------                 ------------------------

           IN:                                      IN:
           ---                                      ---
               UZF-1 =        2585.1111                 UZF-1 =        2585.1111
               SFR-1 =           0.0000                 SFR-1 =           0.0000
               DRN-1 =        1151.3196                 DRN-1 =        1151.3196

            TOTAL IN =        3736.4307              TOTAL IN =        3736.4307

          OUT:                                     OUT:
          ----                                     ----
               UZF-1 =           0.0000                 UZF-1 =           0.0000
               SFR-1 =        3736.4307                 SFR-1 =        3736.4307
               DRN-1 =           0.0000                 DRN-1 =           0.0000

           TOTAL OUT =        3736.4307             TOTAL OUT =        3736.4307

            IN - OUT =           0.0000              IN - OUT =           0.0000

 PERCENT DISCREPANCY =           0.00     PERCENT DISCREPANCY =           0.00



  VOLUME BUDGET FOR ENTIRE MODEL AT END OF TIME STEP    1, STRESS PERIOD   1
  ---------------------------------------------------------------------------------------------------

     CUMULATIVE VOLUME      L**3       RATES FOR THIS TIME STEP      L**3/T          PACKAGE NAME    
     ------------------                 ------------------------                     ----------------

           IN:                                      IN:
           ---                                      ---
              STO-SS =           0.0000                STO-SS =           0.0000     STORAGE                          
              STO-SY =           0.0000                STO-SY =           0.0000     STORAGE                          
                 DRN =           0.0000                   DRN =           0.0000     DRN-1                            
          DRN-TO-MVR =           0.0000            DRN-TO-MVR =           0.0000     DRN-1                            
                 CHD =           0.0000                   CHD =           0.0000     CHD-1                            
                 SFR =        8082.5891                   SFR =        8082.5891     SFR-1                            
           UZF-GWRCH =       25112.4955             UZF-GWRCH =       25112.4955     UZF-1                            
            UZF-GWET =           0.0000              UZF-GWET =           0.0000     UZF-1                            

            TOTAL IN =       33195.0846              TOTAL IN =       33195.0846

          OUT:                                     OUT:
          ----                                     ----
              STO-SS =           0.0000                STO-SS =           0.0000     STORAGE                          
              STO-SY =           0.0000                STO-SY =           0.0000     STORAGE                          
                 DRN =       9.6695E-10                   DRN =       9.6695E-10     DRN-1                            
          DRN-TO-MVR =        1151.3196            DRN-TO-MVR =        1151.3196     DRN-1                            
                 CHD =         731.0275                   CHD =         731.0275     CHD-1                            
                 SFR =        8561.5469                   SFR =        8561.5469     SFR-1                            
           UZF-GWRCH =           0.0000             UZF-GWRCH =           0.0000     UZF-1                            
            UZF-GWET =       22751.1905              UZF-GWET =       22751.1905     UZF-1                            

           TOTAL OUT =       33195.0845             TOTAL OUT =       33195.0845

            IN - OUT =       4.6860E-05              IN - OUT =       4.6860E-05

 PERCENT DISCREPANCY =           0.00     PERCENT DISCREPANCY =           0.00




         TIME SUMMARY AT END OF TIME STEP    1 IN STRESS PERIOD    1
                    SECONDS     MINUTES      HOURS       DAYS        YEARS
                    -----------------------------------------------------------
   TIME STEP LENGTH  86400.      1440.0      24.000      1.0000     2.73785E-03
 STRESS PERIOD TIME  86400.      1440.0      24.000      1.0000     2.73785E-03
         TOTAL TIME  86400.      1440.0      24.000      1.0000     2.73785E-03


end timestep

