                                   MODFLOW 6
                U.S. GEOLOGICAL SURVEY MODULAR HYDROLOGIC MODEL
                       GROUNDWATER TRANSPORT MODEL (GWT)
                            VERSION 6.4.4 02/13/2024

   MODFLOW 6 compiled Feb 13 2024 16:19:58 with Intel(R) Fortran Intel(R) 64
   Compiler Classic for applications running on Intel(R) 64, Version 2021.7.0
                             Build 20220726_000000

This software has been approved for release by the U.S. Geological 
Survey (USGS). Although the software has been subjected to rigorous 
review, the USGS reserves the right to update the software as needed 
pursuant to further analysis and review. No warranty, expressed or 
implied, is made by the USGS or the U.S. Government as to the 
functionality of the software and related material nor shall the 
fact of release constitute any such warranty. Furthermore, the 
software is released on condition that neither the USGS nor the U.S. 
Government shall be held liable for any damages resulting from its 
authorized or unauthorized use. Also refer to the USGS Water 
Resources Software User Rights Notice for complete use, copyright, 
and distribution information.


As a work of the United States Government, this USGS product is 
in the public domain within the United States. You can copy, 
modify, distribute, and perform the work, even for commercial 
purposes, all without asking permission. Additionally, USGS 
waives copyright and related rights in the work worldwide 
through CC0 1.0 Universal Public Domain Dedication 
(https://creativecommons.org/publicdomain/zero/1.0/).

The following GNU Lesser General Public License (LGPL) libraries
are used in this USGS product:

    SPARSKIT version 2.0
      ilut, luson, and qsplit 
      (https://www-users.cse.umn.edu/~saad/software/SPARSKIT/)

    RCM - Reverse Cuthill McKee Ordering
      (https://people.math.sc.edu/Burkardt/f_src/rcm/rcm.html)

    BLAS - Basic Linear Algebra Subprograms Level 1
      (https://people.math.sc.edu/Burkardt/f_src/blas1_d/blas1_d.html)

    SPARSEKIT - Sparse Matrix Utility Package
      amux, dperm, dvperm, rperm, and cperm
      (https://people.sc.fsu.edu/~jburkardt/f77_src/sparsekit/sparsekit.html)

The following BSD-3 License libraries are used in this USGS product:

    Modern Fortran DAG Library
      Copyright (c) 2018, Jacob Williams
      All rights reserved.
      (https://github.com/jacobwilliams/daglib)

MODFLOW 6 compiler options: -Isrc/libmf6core.a.p -Isrc -I../src
-Isrc/libmf6_external.a.p -D_FILE_OFFSET_BITS=64 -warn general -warn
truncated_source -stand=f08 -g -traceback -O2 -fpe0 -no-heap-arrays
-traceback -diag-disable:7416 -diag-disable:7025 -diag-disable:5268 -fPIC
-module src/libmf6core.a.p
-gen-dep=src/libmf6core.a.p/Utilities_compilerversion.F90.o
-gen-depformat=make -o src/libmf6core.a.p/Utilities_compilerversion.F90.o -c

System command used to initiate simulation:
/home/jovyan/GMMC/SNN_WMA/mf6/bin/mf6

MODFLOW was compiled using uniform precision.

Real Variables
  KIND: 8
  TINY (smallest non-zero value):    2.225074-308
  HUGE (largest value):    1.797693+308
  PRECISION: 15
  SIZE IN BITS: 64

Integer Variables
  KIND: 4
  HUGE (largest value): 2147483647
  SIZE IN BITS: 32

Long Integer Variables
  KIND: 8
  HUGE (largest value): 9223372036854775807
  SIZE IN BITS: 64

Logical Variables
  KIND: 4
  SIZE IN BITS: 32
 
 NAMEFILE OPTIONS:
    FLOWS WILL BE SAVED TO BUDGET FILE SPECIFIED IN OUTPUT CONTROL
 END NAMEFILE OPTIONS:

 DIS -- STRUCTURED GRID DISCRETIZATION PACKAGE, VERSION 2 : 3/27/2014 - INPUT READ FROM MEMPATH: __INPUT__/TRANSPORT/DIS                           


 DSP-- DISPERSION PACKAGE, VERSION 1, 1/24/2018 INPUT READ FROM MEMPATH: __INPUT__/TRANSPORT/DSP                           


 Setting Discretization Options
    Model length unit [0=UND, 1=FEET, 2=METERS, 3=CENTIMETERS] set as 3
 End Setting Discretization Options

 Setting Discretization Dimensions
    NLAY = 1
    NROW = 1
    NCOL = 120
 End Setting Discretization Dimensions

 Setting Discretization Griddata
    DELR set from input file
    DELC set from input file
    TOP set from input file
    BOTM set from input file
 End Setting Discretization Griddata


 FMI -- FLOW MODEL INTERFACE, VERSION 2, 8/17/2023 INPUT READ FROM UNIT 1005


 # File generated by Flopy version 3.8.2 on 11/26/2024 at 19:49:26.
 PROCESSING FMI OPTIONS
 END OF FMI OPTIONS
 PROCESSING FMI PACKAGEDATA

 OPENED flow.hds
 FILE TYPE:DATA(BINARY)   UNIT 1015   STATUS:UNKNOWN             
 FORMAT:UNFORMATTED            ACCESS:STREAM              
 ACTION:READWRITE           

Reading binary file to determine number of records per time step.
Detected 1 unique records in binary file.

 OPENED flow.bud
 FILE TYPE:DATA(BINARY)   UNIT 1016   STATUS:UNKNOWN             
 FORMAT:UNFORMATTED            ACCESS:STREAM              
 ACTION:READWRITE           

Reading budget file to determine number of terms per time step.
   0.500000        FLOW-JA-FACE                 
   0.500000          DATA-SPDIS NPF             
   0.500000            DATA-SAT NPF             
   0.500000                 WEL WEL-1           
   0.500000                 CHD CHD_0           
Detected 5 unique flow terms in budget file.
 END OF FMI PACKAGEDATA

 ADV-- ADVECTION PACKAGE, VERSION 1, 8/25/2017 INPUT READ FROM UNIT 1007


 # File generated by Flopy version 3.8.2 on 11/26/2024 at 19:49:26.
 PROCESSING ADVECTION OPTIONS
    ADVECTION WEIGHTING SCHEME HAS BEEN SET TO: TVD
 END OF ADVECTION OPTIONS
 Setting DSP Options
    XT3D formulation [0=INACTIVE, 1=ACTIVE, 3=ACTIVE RHS] set to: 0
 End Setting DSP Options

 Setting DSP Griddata
    ALH set from input file
    ATH1 set from input file
 End Setting DSP Griddata

    STRT set from input file

 MST -- MOBILE STORAGE AND TRANSFER PACKAGE, VERSION 1, 7/29/2020 INPUT READ FROM UNIT 1006


 # File generated by Flopy version 3.8.2 on 11/26/2024 at 19:49:26.
 PROCESSING MOBILE STORAGE AND TRANSFER OPTIONS
    FIRST-ORDER DECAY IS ACTIVE. 
 END OF MOBILE STORAGE AND TRANSFER OPTIONS
 PROCESSING GRIDDATA

   MOBILE DOMAIN POROSITY =  0.1000000    

               DECAY RATE =  0.1000000E-01
 END PROCESSING GRIDDATA

 SSM -- SOURCE-SINK MIXING PACKAGE, VERSION 1, 8/25/2017 INPUT READ FROM UNIT 1009


 # File generated by Flopy version 3.8.2 on 11/26/2024 at 19:49:26.
 PROCESSING SSM OPTIONS
 END OF SSM OPTIONS
 PROCESSING SOURCES
 AUX SOURCE DETECTED.
    USING AUX COLUMN 1 IN PACKAGE WEL-1
 END PROCESSING SOURCES
 OPTIONAL FILEINPUT BLOCK NOT FOUND.  CONTINUING.

The observation utility is active for "TRANSPORT"
 # File generated by Flopy version 3.8.2 on 11/26/2024 at 19:49:26.

Processing observation options:

Text output number of digits of precision set to: 10
The PRINT_INPUT option has been specified.


 OBSERVATIONS READ FROM FILE "transport.obs"
 ----------------------------------------------------------------------------------------------------------------------------------------------------------------------------------------------------------------------------
 NAME                                     TYPE                                       TIME         LOCATION DATA                              OUTPUT FILENAME                                                                 
 ----------------------------------------------------------------------------------------------------------------------------------------------------------------------------------------------------------------------------
 X005                                     CONTINUOUS  CONCENTRATION                  ALL TIMES    "  1 1 1"                                  transporte.obs.csv                                                              
 X405                                     CONTINUOUS  CONCENTRATION                  ALL TIMES    "  1 1 41"                                 transporte.obs.csv                                                              
 X1105                                    CONTINUOUS  CONCENTRATION                  ALL TIMES    "  1 1 111"                                transporte.obs.csv                                                              
 ----------------------------------------------------------------------------------------------------------------------------------------------------------------------------------------------------------------------------


      THE LAST TIME STEP WILL BE PRINTED
      THE LAST TIME STEP WILL BE PRINTED
 # File generated by Flopy version 3.8.2 on 11/26/2024 at 19:49:26.

 PROCESSING OC OPTIONS

    BUDGET INFORMATION WILL BE WRITTEN TO:
      UNIT NUMBER: 1018
      FILE NAME: transport.bud

 OPENED transport.bud
 FILE TYPE:DATA(BINARY)   UNIT 1018   STATUS:REPLACE             
 FORMAT:UNFORMATTED            ACCESS:STREAM              
 ACTION:READWRITE           

    CONCENTRATION INFORMATION WILL BE WRITTEN TO:
      UNIT NUMBER: 1019
      FILE NAME: transport.ucn

 OPENED transport.ucn
 FILE TYPE:DATA(BINARY)   UNIT 1019   STATUS:REPLACE             
 FORMAT:UNFORMATTED            ACCESS:STREAM              
 ACTION:READWRITE           

 END OF OC OPTIONS

start timestep kper="1" kstp="1" mode="normal"


 BEGIN READING OUTPUT CONTROL FOR STRESS PERIOD 1
      ALL TIME STEPS WILL BE SAVED
      THE LAST TIME STEP WILL BE SAVED
      THE LAST TIME STEP WILL BE PRINTED
      THE LAST TIME STEP WILL BE PRINTED

 END READING OUTPUT CONTROL FOR STRESS PERIOD 1

 FMI READING BUDGET TERMS FOR KSTP 1 KPER 1
   0.500000        FLOW-JA-FACE                 
   0.500000          DATA-SPDIS NPF             
   0.500000            DATA-SAT NPF             
   0.500000                 WEL WEL-1           
   0.500000                 CHD CHD_0           

 FMI READING HEAD FOR KSTP 1 KPER 1

 CONCENTRATION WILL BE SAVED ON UNIT 1019 AT END OF TIME STEP    1, STRESS PERIOD    1

end timestep


start timestep kper="1" kstp="2" mode="normal"


 FMI READING BUDGET TERMS FOR KSTP 2 KPER 1
    1.00000        FLOW-JA-FACE                 
    1.00000          DATA-SPDIS NPF             
    1.00000            DATA-SAT NPF             
    1.00000                 WEL WEL-1           
    1.00000                 CHD CHD_0           

 FMI READING HEAD FOR KSTP 2 KPER 1

 CONCENTRATION WILL BE SAVED ON UNIT 1019 AT END OF TIME STEP    2, STRESS PERIOD    1

end timestep


start timestep kper="1" kstp="3" mode="normal"


 FMI READING BUDGET TERMS FOR KSTP 3 KPER 1
    1.50000        FLOW-JA-FACE                 
    1.50000          DATA-SPDIS NPF             
    1.50000            DATA-SAT NPF             
    1.50000                 WEL WEL-1           
    1.50000                 CHD CHD_0           

 FMI READING HEAD FOR KSTP 3 KPER 1

 CONCENTRATION WILL BE SAVED ON UNIT 1019 AT END OF TIME STEP    3, STRESS PERIOD    1

end timestep


start timestep kper="1" kstp="4" mode="normal"


 FMI READING BUDGET TERMS FOR KSTP 4 KPER 1
    2.00000        FLOW-JA-FACE                 
    2.00000          DATA-SPDIS NPF             
    2.00000            DATA-SAT NPF             
    2.00000                 WEL WEL-1           
    2.00000                 CHD CHD_0           

 FMI READING HEAD FOR KSTP 4 KPER 1

 CONCENTRATION WILL BE SAVED ON UNIT 1019 AT END OF TIME STEP    4, STRESS PERIOD    1

end timestep


start timestep kper="1" kstp="5" mode="normal"


 FMI READING BUDGET TERMS FOR KSTP 5 KPER 1
    2.50000        FLOW-JA-FACE                 
    2.50000          DATA-SPDIS NPF             
    2.50000            DATA-SAT NPF             
    2.50000                 WEL WEL-1           
    2.50000                 CHD CHD_0           

 FMI READING HEAD FOR KSTP 5 KPER 1

 CONCENTRATION WILL BE SAVED ON UNIT 1019 AT END OF TIME STEP    5, STRESS PERIOD    1

end timestep


start timestep kper="1" kstp="6" mode="normal"


 FMI READING BUDGET TERMS FOR KSTP 6 KPER 1
    3.00000        FLOW-JA-FACE                 
    3.00000          DATA-SPDIS NPF             
    3.00000            DATA-SAT NPF             
    3.00000                 WEL WEL-1           
    3.00000                 CHD CHD_0           

 FMI READING HEAD FOR KSTP 6 KPER 1

 CONCENTRATION WILL BE SAVED ON UNIT 1019 AT END OF TIME STEP    6, STRESS PERIOD    1

end timestep


start timestep kper="1" kstp="7" mode="normal"


 FMI READING BUDGET TERMS FOR KSTP 7 KPER 1
    3.50000        FLOW-JA-FACE                 
    3.50000          DATA-SPDIS NPF             
    3.50000            DATA-SAT NPF             
    3.50000                 WEL WEL-1           
    3.50000                 CHD CHD_0           

 FMI READING HEAD FOR KSTP 7 KPER 1

 CONCENTRATION WILL BE SAVED ON UNIT 1019 AT END OF TIME STEP    7, STRESS PERIOD    1

end timestep


start timestep kper="1" kstp="8" mode="normal"


 FMI READING BUDGET TERMS FOR KSTP 8 KPER 1
    4.00000        FLOW-JA-FACE                 
    4.00000          DATA-SPDIS NPF             
    4.00000            DATA-SAT NPF             
    4.00000                 WEL WEL-1           
    4.00000                 CHD CHD_0           

 FMI READING HEAD FOR KSTP 8 KPER 1

 CONCENTRATION WILL BE SAVED ON UNIT 1019 AT END OF TIME STEP    8, STRESS PERIOD    1

end timestep


start timestep kper="1" kstp="9" mode="normal"


 FMI READING BUDGET TERMS FOR KSTP 9 KPER 1
    4.50000        FLOW-JA-FACE                 
    4.50000          DATA-SPDIS NPF             
    4.50000            DATA-SAT NPF             
    4.50000                 WEL WEL-1           
    4.50000                 CHD CHD_0           

 FMI READING HEAD FOR KSTP 9 KPER 1

 CONCENTRATION WILL BE SAVED ON UNIT 1019 AT END OF TIME STEP    9, STRESS PERIOD    1

end timestep


start timestep kper="1" kstp="10" mode="normal"


 FMI READING BUDGET TERMS FOR KSTP 10 KPER 1
    5.00000        FLOW-JA-FACE                 
    5.00000          DATA-SPDIS NPF             
    5.00000            DATA-SAT NPF             
    5.00000                 WEL WEL-1           
    5.00000                 CHD CHD_0           

 FMI READING HEAD FOR KSTP 10 KPER 1

 CONCENTRATION WILL BE SAVED ON UNIT 1019 AT END OF TIME STEP   10, STRESS PERIOD    1

end timestep


start timestep kper="1" kstp="11" mode="normal"


 FMI READING BUDGET TERMS FOR KSTP 11 KPER 1
    5.50000        FLOW-JA-FACE                 
    5.50000          DATA-SPDIS NPF             
    5.50000            DATA-SAT NPF             
    5.50000                 WEL WEL-1           
    5.50000                 CHD CHD_0           

 FMI READING HEAD FOR KSTP 11 KPER 1

 CONCENTRATION WILL BE SAVED ON UNIT 1019 AT END OF TIME STEP   11, STRESS PERIOD    1

end timestep


start timestep kper="1" kstp="12" mode="normal"


 FMI READING BUDGET TERMS FOR KSTP 12 KPER 1
    6.00000        FLOW-JA-FACE                 
    6.00000          DATA-SPDIS NPF             
    6.00000            DATA-SAT NPF             
    6.00000                 WEL WEL-1           
    6.00000                 CHD CHD_0           

 FMI READING HEAD FOR KSTP 12 KPER 1

 CONCENTRATION WILL BE SAVED ON UNIT 1019 AT END OF TIME STEP   12, STRESS PERIOD    1

end timestep


start timestep kper="1" kstp="13" mode="normal"


 FMI READING BUDGET TERMS FOR KSTP 13 KPER 1
    6.50000        FLOW-JA-FACE                 
    6.50000          DATA-SPDIS NPF             
    6.50000            DATA-SAT NPF             
    6.50000                 WEL WEL-1           
    6.50000                 CHD CHD_0           

 FMI READING HEAD FOR KSTP 13 KPER 1

 CONCENTRATION WILL BE SAVED ON UNIT 1019 AT END OF TIME STEP   13, STRESS PERIOD    1

end timestep


start timestep kper="1" kstp="14" mode="normal"


 FMI READING BUDGET TERMS FOR KSTP 14 KPER 1
    7.00000        FLOW-JA-FACE                 
    7.00000          DATA-SPDIS NPF             
    7.00000            DATA-SAT NPF             
    7.00000                 WEL WEL-1           
    7.00000                 CHD CHD_0           

 FMI READING HEAD FOR KSTP 14 KPER 1

 CONCENTRATION WILL BE SAVED ON UNIT 1019 AT END OF TIME STEP   14, STRESS PERIOD    1

end timestep


start timestep kper="1" kstp="15" mode="normal"


 FMI READING BUDGET TERMS FOR KSTP 15 KPER 1
    7.50000        FLOW-JA-FACE                 
    7.50000          DATA-SPDIS NPF             
    7.50000            DATA-SAT NPF             
    7.50000                 WEL WEL-1           
    7.50000                 CHD CHD_0           

 FMI READING HEAD FOR KSTP 15 KPER 1

 CONCENTRATION WILL BE SAVED ON UNIT 1019 AT END OF TIME STEP   15, STRESS PERIOD    1

end timestep


start timestep kper="1" kstp="16" mode="normal"


 FMI READING BUDGET TERMS FOR KSTP 16 KPER 1
    8.00000        FLOW-JA-FACE                 
    8.00000          DATA-SPDIS NPF             
    8.00000            DATA-SAT NPF             
    8.00000                 WEL WEL-1           
    8.00000                 CHD CHD_0           

 FMI READING HEAD FOR KSTP 16 KPER 1

 CONCENTRATION WILL BE SAVED ON UNIT 1019 AT END OF TIME STEP   16, STRESS PERIOD    1

end timestep


start timestep kper="1" kstp="17" mode="normal"


 FMI READING BUDGET TERMS FOR KSTP 17 KPER 1
    8.50000        FLOW-JA-FACE                 
    8.50000          DATA-SPDIS NPF             
    8.50000            DATA-SAT NPF             
    8.50000                 WEL WEL-1           
    8.50000                 CHD CHD_0           

 FMI READING HEAD FOR KSTP 17 KPER 1

 CONCENTRATION WILL BE SAVED ON UNIT 1019 AT END OF TIME STEP   17, STRESS PERIOD    1

end timestep


start timestep kper="1" kstp="18" mode="normal"


 FMI READING BUDGET TERMS FOR KSTP 18 KPER 1
    9.00000        FLOW-JA-FACE                 
    9.00000          DATA-SPDIS NPF             
    9.00000            DATA-SAT NPF             
    9.00000                 WEL WEL-1           
    9.00000                 CHD CHD_0           

 FMI READING HEAD FOR KSTP 18 KPER 1

 CONCENTRATION WILL BE SAVED ON UNIT 1019 AT END OF TIME STEP   18, STRESS PERIOD    1

end timestep


start timestep kper="1" kstp="19" mode="normal"


 FMI READING BUDGET TERMS FOR KSTP 19 KPER 1
    9.50000        FLOW-JA-FACE                 
    9.50000          DATA-SPDIS NPF             
    9.50000            DATA-SAT NPF             
    9.50000                 WEL WEL-1           
    9.50000                 CHD CHD_0           

 FMI READING HEAD FOR KSTP 19 KPER 1

 CONCENTRATION WILL BE SAVED ON UNIT 1019 AT END OF TIME STEP   19, STRESS PERIOD    1

end timestep


start timestep kper="1" kstp="20" mode="normal"


 FMI READING BUDGET TERMS FOR KSTP 20 KPER 1
    10.0000        FLOW-JA-FACE                 
    10.0000          DATA-SPDIS NPF             
    10.0000            DATA-SAT NPF             
    10.0000                 WEL WEL-1           
    10.0000                 CHD CHD_0           

 FMI READING HEAD FOR KSTP 20 KPER 1

 CONCENTRATION WILL BE SAVED ON UNIT 1019 AT END OF TIME STEP   20, STRESS PERIOD    1

end timestep


start timestep kper="1" kstp="21" mode="normal"


 FMI READING BUDGET TERMS FOR KSTP 21 KPER 1
    10.5000        FLOW-JA-FACE                 
    10.5000          DATA-SPDIS NPF             
    10.5000            DATA-SAT NPF             
    10.5000                 WEL WEL-1           
    10.5000                 CHD CHD_0           

 FMI READING HEAD FOR KSTP 21 KPER 1

 CONCENTRATION WILL BE SAVED ON UNIT 1019 AT END OF TIME STEP   21, STRESS PERIOD    1

end timestep


start timestep kper="1" kstp="22" mode="normal"


 FMI READING BUDGET TERMS FOR KSTP 22 KPER 1
    11.0000        FLOW-JA-FACE                 
    11.0000          DATA-SPDIS NPF             
    11.0000            DATA-SAT NPF             
    11.0000                 WEL WEL-1           
    11.0000                 CHD CHD_0           

 FMI READING HEAD FOR KSTP 22 KPER 1

 CONCENTRATION WILL BE SAVED ON UNIT 1019 AT END OF TIME STEP   22, STRESS PERIOD    1

end timestep


start timestep kper="1" kstp="23" mode="normal"


 FMI READING BUDGET TERMS FOR KSTP 23 KPER 1
    11.5000        FLOW-JA-FACE                 
    11.5000          DATA-SPDIS NPF             
    11.5000            DATA-SAT NPF             
    11.5000                 WEL WEL-1           
    11.5000                 CHD CHD_0           

 FMI READING HEAD FOR KSTP 23 KPER 1

 CONCENTRATION WILL BE SAVED ON UNIT 1019 AT END OF TIME STEP   23, STRESS PERIOD    1

end timestep


start timestep kper="1" kstp="24" mode="normal"


 FMI READING BUDGET TERMS FOR KSTP 24 KPER 1
    12.0000        FLOW-JA-FACE                 
    12.0000          DATA-SPDIS NPF             
    12.0000            DATA-SAT NPF             
    12.0000                 WEL WEL-1           
    12.0000                 CHD CHD_0           

 FMI READING HEAD FOR KSTP 24 KPER 1

 CONCENTRATION WILL BE SAVED ON UNIT 1019 AT END OF TIME STEP   24, STRESS PERIOD    1

end timestep


start timestep kper="1" kstp="25" mode="normal"


 FMI READING BUDGET TERMS FOR KSTP 25 KPER 1
    12.5000        FLOW-JA-FACE                 
    12.5000          DATA-SPDIS NPF             
    12.5000            DATA-SAT NPF             
    12.5000                 WEL WEL-1           
    12.5000                 CHD CHD_0           

 FMI READING HEAD FOR KSTP 25 KPER 1

 CONCENTRATION WILL BE SAVED ON UNIT 1019 AT END OF TIME STEP   25, STRESS PERIOD    1

end timestep


start timestep kper="1" kstp="26" mode="normal"


 FMI READING BUDGET TERMS FOR KSTP 26 KPER 1
    13.0000        FLOW-JA-FACE                 
    13.0000          DATA-SPDIS NPF             
    13.0000            DATA-SAT NPF             
    13.0000                 WEL WEL-1           
    13.0000                 CHD CHD_0           

 FMI READING HEAD FOR KSTP 26 KPER 1

 CONCENTRATION WILL BE SAVED ON UNIT 1019 AT END OF TIME STEP   26, STRESS PERIOD    1

end timestep


start timestep kper="1" kstp="27" mode="normal"


 FMI READING BUDGET TERMS FOR KSTP 27 KPER 1
    13.5000        FLOW-JA-FACE                 
    13.5000          DATA-SPDIS NPF             
    13.5000            DATA-SAT NPF             
    13.5000                 WEL WEL-1           
    13.5000                 CHD CHD_0           

 FMI READING HEAD FOR KSTP 27 KPER 1

 CONCENTRATION WILL BE SAVED ON UNIT 1019 AT END OF TIME STEP   27, STRESS PERIOD    1

end timestep


start timestep kper="1" kstp="28" mode="normal"


 FMI READING BUDGET TERMS FOR KSTP 28 KPER 1
    14.0000        FLOW-JA-FACE                 
    14.0000          DATA-SPDIS NPF             
    14.0000            DATA-SAT NPF             
    14.0000                 WEL WEL-1           
    14.0000                 CHD CHD_0           

 FMI READING HEAD FOR KSTP 28 KPER 1

 CONCENTRATION WILL BE SAVED ON UNIT 1019 AT END OF TIME STEP   28, STRESS PERIOD    1

end timestep


start timestep kper="1" kstp="29" mode="normal"


 FMI READING BUDGET TERMS FOR KSTP 29 KPER 1
    14.5000        FLOW-JA-FACE                 
    14.5000          DATA-SPDIS NPF             
    14.5000            DATA-SAT NPF             
    14.5000                 WEL WEL-1           
    14.5000                 CHD CHD_0           

 FMI READING HEAD FOR KSTP 29 KPER 1

 CONCENTRATION WILL BE SAVED ON UNIT 1019 AT END OF TIME STEP   29, STRESS PERIOD    1

end timestep


start timestep kper="1" kstp="30" mode="normal"


 FMI READING BUDGET TERMS FOR KSTP 30 KPER 1
    15.0000        FLOW-JA-FACE                 
    15.0000          DATA-SPDIS NPF             
    15.0000            DATA-SAT NPF             
    15.0000                 WEL WEL-1           
    15.0000                 CHD CHD_0           

 FMI READING HEAD FOR KSTP 30 KPER 1

 CONCENTRATION WILL BE SAVED ON UNIT 1019 AT END OF TIME STEP   30, STRESS PERIOD    1

end timestep


start timestep kper="1" kstp="31" mode="normal"


 FMI READING BUDGET TERMS FOR KSTP 31 KPER 1
    15.5000        FLOW-JA-FACE                 
    15.5000          DATA-SPDIS NPF             
    15.5000            DATA-SAT NPF             
    15.5000                 WEL WEL-1           
    15.5000                 CHD CHD_0           

 FMI READING HEAD FOR KSTP 31 KPER 1

 CONCENTRATION WILL BE SAVED ON UNIT 1019 AT END OF TIME STEP   31, STRESS PERIOD    1

end timestep


start timestep kper="1" kstp="32" mode="normal"


 FMI READING BUDGET TERMS FOR KSTP 32 KPER 1
    16.0000        FLOW-JA-FACE                 
    16.0000          DATA-SPDIS NPF             
    16.0000            DATA-SAT NPF             
    16.0000                 WEL WEL-1           
    16.0000                 CHD CHD_0           

 FMI READING HEAD FOR KSTP 32 KPER 1

 CONCENTRATION WILL BE SAVED ON UNIT 1019 AT END OF TIME STEP   32, STRESS PERIOD    1

end timestep


start timestep kper="1" kstp="33" mode="normal"


 FMI READING BUDGET TERMS FOR KSTP 33 KPER 1
    16.5000        FLOW-JA-FACE                 
    16.5000          DATA-SPDIS NPF             
    16.5000            DATA-SAT NPF             
    16.5000                 WEL WEL-1           
    16.5000                 CHD CHD_0           

 FMI READING HEAD FOR KSTP 33 KPER 1

 CONCENTRATION WILL BE SAVED ON UNIT 1019 AT END OF TIME STEP   33, STRESS PERIOD    1

end timestep


start timestep kper="1" kstp="34" mode="normal"


 FMI READING BUDGET TERMS FOR KSTP 34 KPER 1
    17.0000        FLOW-JA-FACE                 
    17.0000          DATA-SPDIS NPF             
    17.0000            DATA-SAT NPF             
    17.0000                 WEL WEL-1           
    17.0000                 CHD CHD_0           

 FMI READING HEAD FOR KSTP 34 KPER 1

 CONCENTRATION WILL BE SAVED ON UNIT 1019 AT END OF TIME STEP   34, STRESS PERIOD    1

end timestep


start timestep kper="1" kstp="35" mode="normal"


 FMI READING BUDGET TERMS FOR KSTP 35 KPER 1
    17.5000        FLOW-JA-FACE                 
    17.5000          DATA-SPDIS NPF             
    17.5000            DATA-SAT NPF             
    17.5000                 WEL WEL-1           
    17.5000                 CHD CHD_0           

 FMI READING HEAD FOR KSTP 35 KPER 1

 CONCENTRATION WILL BE SAVED ON UNIT 1019 AT END OF TIME STEP   35, STRESS PERIOD    1

end timestep


start timestep kper="1" kstp="36" mode="normal"


 FMI READING BUDGET TERMS FOR KSTP 36 KPER 1
    18.0000        FLOW-JA-FACE                 
    18.0000          DATA-SPDIS NPF             
    18.0000            DATA-SAT NPF             
    18.0000                 WEL WEL-1           
    18.0000                 CHD CHD_0           

 FMI READING HEAD FOR KSTP 36 KPER 1

 CONCENTRATION WILL BE SAVED ON UNIT 1019 AT END OF TIME STEP   36, STRESS PERIOD    1

end timestep


start timestep kper="1" kstp="37" mode="normal"


 FMI READING BUDGET TERMS FOR KSTP 37 KPER 1
    18.5000        FLOW-JA-FACE                 
    18.5000          DATA-SPDIS NPF             
    18.5000            DATA-SAT NPF             
    18.5000                 WEL WEL-1           
    18.5000                 CHD CHD_0           

 FMI READING HEAD FOR KSTP 37 KPER 1

 CONCENTRATION WILL BE SAVED ON UNIT 1019 AT END OF TIME STEP   37, STRESS PERIOD    1

end timestep


start timestep kper="1" kstp="38" mode="normal"


 FMI READING BUDGET TERMS FOR KSTP 38 KPER 1
    19.0000        FLOW-JA-FACE                 
    19.0000          DATA-SPDIS NPF             
    19.0000            DATA-SAT NPF             
    19.0000                 WEL WEL-1           
    19.0000                 CHD CHD_0           

 FMI READING HEAD FOR KSTP 38 KPER 1

 CONCENTRATION WILL BE SAVED ON UNIT 1019 AT END OF TIME STEP   38, STRESS PERIOD    1

end timestep


start timestep kper="1" kstp="39" mode="normal"


 FMI READING BUDGET TERMS FOR KSTP 39 KPER 1
    19.5000        FLOW-JA-FACE                 
    19.5000          DATA-SPDIS NPF             
    19.5000            DATA-SAT NPF             
    19.5000                 WEL WEL-1           
    19.5000                 CHD CHD_0           

 FMI READING HEAD FOR KSTP 39 KPER 1

 CONCENTRATION WILL BE SAVED ON UNIT 1019 AT END OF TIME STEP   39, STRESS PERIOD    1

end timestep


start timestep kper="1" kstp="40" mode="normal"


 FMI READING BUDGET TERMS FOR KSTP 40 KPER 1
    20.0000        FLOW-JA-FACE                 
    20.0000          DATA-SPDIS NPF             
    20.0000            DATA-SAT NPF             
    20.0000                 WEL WEL-1           
    20.0000                 CHD CHD_0           

 FMI READING HEAD FOR KSTP 40 KPER 1

 CONCENTRATION WILL BE SAVED ON UNIT 1019 AT END OF TIME STEP   40, STRESS PERIOD    1

end timestep


start timestep kper="1" kstp="41" mode="normal"


 FMI READING BUDGET TERMS FOR KSTP 41 KPER 1
    20.5000        FLOW-JA-FACE                 
    20.5000          DATA-SPDIS NPF             
    20.5000            DATA-SAT NPF             
    20.5000                 WEL WEL-1           
    20.5000                 CHD CHD_0           

 FMI READING HEAD FOR KSTP 41 KPER 1

 CONCENTRATION WILL BE SAVED ON UNIT 1019 AT END OF TIME STEP   41, STRESS PERIOD    1

end timestep


start timestep kper="1" kstp="42" mode="normal"


 FMI READING BUDGET TERMS FOR KSTP 42 KPER 1
    21.0000        FLOW-JA-FACE                 
    21.0000          DATA-SPDIS NPF             
    21.0000            DATA-SAT NPF             
    21.0000                 WEL WEL-1           
    21.0000                 CHD CHD_0           

 FMI READING HEAD FOR KSTP 42 KPER 1

 CONCENTRATION WILL BE SAVED ON UNIT 1019 AT END OF TIME STEP   42, STRESS PERIOD    1

end timestep


start timestep kper="1" kstp="43" mode="normal"


 FMI READING BUDGET TERMS FOR KSTP 43 KPER 1
    21.5000        FLOW-JA-FACE                 
    21.5000          DATA-SPDIS NPF             
    21.5000            DATA-SAT NPF             
    21.5000                 WEL WEL-1           
    21.5000                 CHD CHD_0           

 FMI READING HEAD FOR KSTP 43 KPER 1

 CONCENTRATION WILL BE SAVED ON UNIT 1019 AT END OF TIME STEP   43, STRESS PERIOD    1

end timestep


start timestep kper="1" kstp="44" mode="normal"


 FMI READING BUDGET TERMS FOR KSTP 44 KPER 1
    22.0000        FLOW-JA-FACE                 
    22.0000          DATA-SPDIS NPF             
    22.0000            DATA-SAT NPF             
    22.0000                 WEL WEL-1           
    22.0000                 CHD CHD_0           

 FMI READING HEAD FOR KSTP 44 KPER 1

 CONCENTRATION WILL BE SAVED ON UNIT 1019 AT END OF TIME STEP   44, STRESS PERIOD    1

end timestep


start timestep kper="1" kstp="45" mode="normal"


 FMI READING BUDGET TERMS FOR KSTP 45 KPER 1
    22.5000        FLOW-JA-FACE                 
    22.5000          DATA-SPDIS NPF             
    22.5000            DATA-SAT NPF             
    22.5000                 WEL WEL-1           
    22.5000                 CHD CHD_0           

 FMI READING HEAD FOR KSTP 45 KPER 1

 CONCENTRATION WILL BE SAVED ON UNIT 1019 AT END OF TIME STEP   45, STRESS PERIOD    1

end timestep


start timestep kper="1" kstp="46" mode="normal"


 FMI READING BUDGET TERMS FOR KSTP 46 KPER 1
    23.0000        FLOW-JA-FACE                 
    23.0000          DATA-SPDIS NPF             
    23.0000            DATA-SAT NPF             
    23.0000                 WEL WEL-1           
    23.0000                 CHD CHD_0           

 FMI READING HEAD FOR KSTP 46 KPER 1

 CONCENTRATION WILL BE SAVED ON UNIT 1019 AT END OF TIME STEP   46, STRESS PERIOD    1

end timestep


start timestep kper="1" kstp="47" mode="normal"


 FMI READING BUDGET TERMS FOR KSTP 47 KPER 1
    23.5000        FLOW-JA-FACE                 
    23.5000          DATA-SPDIS NPF             
    23.5000            DATA-SAT NPF             
    23.5000                 WEL WEL-1           
    23.5000                 CHD CHD_0           

 FMI READING HEAD FOR KSTP 47 KPER 1

 CONCENTRATION WILL BE SAVED ON UNIT 1019 AT END OF TIME STEP   47, STRESS PERIOD    1

end timestep


start timestep kper="1" kstp="48" mode="normal"


 FMI READING BUDGET TERMS FOR KSTP 48 KPER 1
    24.0000        FLOW-JA-FACE                 
    24.0000          DATA-SPDIS NPF             
    24.0000            DATA-SAT NPF             
    24.0000                 WEL WEL-1           
    24.0000                 CHD CHD_0           

 FMI READING HEAD FOR KSTP 48 KPER 1

 CONCENTRATION WILL BE SAVED ON UNIT 1019 AT END OF TIME STEP   48, STRESS PERIOD    1

end timestep


start timestep kper="1" kstp="49" mode="normal"


 FMI READING BUDGET TERMS FOR KSTP 49 KPER 1
    24.5000        FLOW-JA-FACE                 
    24.5000          DATA-SPDIS NPF             
    24.5000            DATA-SAT NPF             
    24.5000                 WEL WEL-1           
    24.5000                 CHD CHD_0           

 FMI READING HEAD FOR KSTP 49 KPER 1

 CONCENTRATION WILL BE SAVED ON UNIT 1019 AT END OF TIME STEP   49, STRESS PERIOD    1

end timestep


start timestep kper="1" kstp="50" mode="normal"


 FMI READING BUDGET TERMS FOR KSTP 50 KPER 1
    25.0000        FLOW-JA-FACE                 
    25.0000          DATA-SPDIS NPF             
    25.0000            DATA-SAT NPF             
    25.0000                 WEL WEL-1           
    25.0000                 CHD CHD_0           

 FMI READING HEAD FOR KSTP 50 KPER 1

 CONCENTRATION WILL BE SAVED ON UNIT 1019 AT END OF TIME STEP   50, STRESS PERIOD    1

end timestep


start timestep kper="1" kstp="51" mode="normal"


 FMI READING BUDGET TERMS FOR KSTP 51 KPER 1
    25.5000        FLOW-JA-FACE                 
    25.5000          DATA-SPDIS NPF             
    25.5000            DATA-SAT NPF             
    25.5000                 WEL WEL-1           
    25.5000                 CHD CHD_0           

 FMI READING HEAD FOR KSTP 51 KPER 1

 CONCENTRATION WILL BE SAVED ON UNIT 1019 AT END OF TIME STEP   51, STRESS PERIOD    1

end timestep


start timestep kper="1" kstp="52" mode="normal"


 FMI READING BUDGET TERMS FOR KSTP 52 KPER 1
    26.0000        FLOW-JA-FACE                 
    26.0000          DATA-SPDIS NPF             
    26.0000            DATA-SAT NPF             
    26.0000                 WEL WEL-1           
    26.0000                 CHD CHD_0           

 FMI READING HEAD FOR KSTP 52 KPER 1

 CONCENTRATION WILL BE SAVED ON UNIT 1019 AT END OF TIME STEP   52, STRESS PERIOD    1

end timestep


start timestep kper="1" kstp="53" mode="normal"


 FMI READING BUDGET TERMS FOR KSTP 53 KPER 1
    26.5000        FLOW-JA-FACE                 
    26.5000          DATA-SPDIS NPF             
    26.5000            DATA-SAT NPF             
    26.5000                 WEL WEL-1           
    26.5000                 CHD CHD_0           

 FMI READING HEAD FOR KSTP 53 KPER 1

 CONCENTRATION WILL BE SAVED ON UNIT 1019 AT END OF TIME STEP   53, STRESS PERIOD    1

end timestep


start timestep kper="1" kstp="54" mode="normal"


 FMI READING BUDGET TERMS FOR KSTP 54 KPER 1
    27.0000        FLOW-JA-FACE                 
    27.0000          DATA-SPDIS NPF             
    27.0000            DATA-SAT NPF             
    27.0000                 WEL WEL-1           
    27.0000                 CHD CHD_0           

 FMI READING HEAD FOR KSTP 54 KPER 1

 CONCENTRATION WILL BE SAVED ON UNIT 1019 AT END OF TIME STEP   54, STRESS PERIOD    1

end timestep


start timestep kper="1" kstp="55" mode="normal"


 FMI READING BUDGET TERMS FOR KSTP 55 KPER 1
    27.5000        FLOW-JA-FACE                 
    27.5000          DATA-SPDIS NPF             
    27.5000            DATA-SAT NPF             
    27.5000                 WEL WEL-1           
    27.5000                 CHD CHD_0           

 FMI READING HEAD FOR KSTP 55 KPER 1

 CONCENTRATION WILL BE SAVED ON UNIT 1019 AT END OF TIME STEP   55, STRESS PERIOD    1

end timestep


start timestep kper="1" kstp="56" mode="normal"


 FMI READING BUDGET TERMS FOR KSTP 56 KPER 1
    28.0000        FLOW-JA-FACE                 
    28.0000          DATA-SPDIS NPF             
    28.0000            DATA-SAT NPF             
    28.0000                 WEL WEL-1           
    28.0000                 CHD CHD_0           

 FMI READING HEAD FOR KSTP 56 KPER 1

 CONCENTRATION WILL BE SAVED ON UNIT 1019 AT END OF TIME STEP   56, STRESS PERIOD    1

end timestep


start timestep kper="1" kstp="57" mode="normal"


 FMI READING BUDGET TERMS FOR KSTP 57 KPER 1
    28.5000        FLOW-JA-FACE                 
    28.5000          DATA-SPDIS NPF             
    28.5000            DATA-SAT NPF             
    28.5000                 WEL WEL-1           
    28.5000                 CHD CHD_0           

 FMI READING HEAD FOR KSTP 57 KPER 1

 CONCENTRATION WILL BE SAVED ON UNIT 1019 AT END OF TIME STEP   57, STRESS PERIOD    1

end timestep


start timestep kper="1" kstp="58" mode="normal"


 FMI READING BUDGET TERMS FOR KSTP 58 KPER 1
    29.0000        FLOW-JA-FACE                 
    29.0000          DATA-SPDIS NPF             
    29.0000            DATA-SAT NPF             
    29.0000                 WEL WEL-1           
    29.0000                 CHD CHD_0           

 FMI READING HEAD FOR KSTP 58 KPER 1

 CONCENTRATION WILL BE SAVED ON UNIT 1019 AT END OF TIME STEP   58, STRESS PERIOD    1

end timestep


start timestep kper="1" kstp="59" mode="normal"


 FMI READING BUDGET TERMS FOR KSTP 59 KPER 1
    29.5000        FLOW-JA-FACE                 
    29.5000          DATA-SPDIS NPF             
    29.5000            DATA-SAT NPF             
    29.5000                 WEL WEL-1           
    29.5000                 CHD CHD_0           

 FMI READING HEAD FOR KSTP 59 KPER 1

 CONCENTRATION WILL BE SAVED ON UNIT 1019 AT END OF TIME STEP   59, STRESS PERIOD    1

end timestep


start timestep kper="1" kstp="60" mode="normal"


 FMI READING BUDGET TERMS FOR KSTP 60 KPER 1
    30.0000        FLOW-JA-FACE                 
    30.0000          DATA-SPDIS NPF             
    30.0000            DATA-SAT NPF             
    30.0000                 WEL WEL-1           
    30.0000                 CHD CHD_0           

 FMI READING HEAD FOR KSTP 60 KPER 1

 CONCENTRATION WILL BE SAVED ON UNIT 1019 AT END OF TIME STEP   60, STRESS PERIOD    1

end timestep


start timestep kper="1" kstp="61" mode="normal"


 FMI READING BUDGET TERMS FOR KSTP 61 KPER 1
    30.5000        FLOW-JA-FACE                 
    30.5000          DATA-SPDIS NPF             
    30.5000            DATA-SAT NPF             
    30.5000                 WEL WEL-1           
    30.5000                 CHD CHD_0           

 FMI READING HEAD FOR KSTP 61 KPER 1

 CONCENTRATION WILL BE SAVED ON UNIT 1019 AT END OF TIME STEP   61, STRESS PERIOD    1

end timestep


start timestep kper="1" kstp="62" mode="normal"


 FMI READING BUDGET TERMS FOR KSTP 62 KPER 1
    31.0000        FLOW-JA-FACE                 
    31.0000          DATA-SPDIS NPF             
    31.0000            DATA-SAT NPF             
    31.0000                 WEL WEL-1           
    31.0000                 CHD CHD_0           

 FMI READING HEAD FOR KSTP 62 KPER 1

 CONCENTRATION WILL BE SAVED ON UNIT 1019 AT END OF TIME STEP   62, STRESS PERIOD    1

end timestep


start timestep kper="1" kstp="63" mode="normal"


 FMI READING BUDGET TERMS FOR KSTP 63 KPER 1
    31.5000        FLOW-JA-FACE                 
    31.5000          DATA-SPDIS NPF             
    31.5000            DATA-SAT NPF             
    31.5000                 WEL WEL-1           
    31.5000                 CHD CHD_0           

 FMI READING HEAD FOR KSTP 63 KPER 1

 CONCENTRATION WILL BE SAVED ON UNIT 1019 AT END OF TIME STEP   63, STRESS PERIOD    1

end timestep


start timestep kper="1" kstp="64" mode="normal"


 FMI READING BUDGET TERMS FOR KSTP 64 KPER 1
    32.0000        FLOW-JA-FACE                 
    32.0000          DATA-SPDIS NPF             
    32.0000            DATA-SAT NPF             
    32.0000                 WEL WEL-1           
    32.0000                 CHD CHD_0           

 FMI READING HEAD FOR KSTP 64 KPER 1

 CONCENTRATION WILL BE SAVED ON UNIT 1019 AT END OF TIME STEP   64, STRESS PERIOD    1

end timestep


start timestep kper="1" kstp="65" mode="normal"


 FMI READING BUDGET TERMS FOR KSTP 65 KPER 1
    32.5000        FLOW-JA-FACE                 
    32.5000          DATA-SPDIS NPF             
    32.5000            DATA-SAT NPF             
    32.5000                 WEL WEL-1           
    32.5000                 CHD CHD_0           

 FMI READING HEAD FOR KSTP 65 KPER 1

 CONCENTRATION WILL BE SAVED ON UNIT 1019 AT END OF TIME STEP   65, STRESS PERIOD    1

end timestep


start timestep kper="1" kstp="66" mode="normal"


 FMI READING BUDGET TERMS FOR KSTP 66 KPER 1
    33.0000        FLOW-JA-FACE                 
    33.0000          DATA-SPDIS NPF             
    33.0000            DATA-SAT NPF             
    33.0000                 WEL WEL-1           
    33.0000                 CHD CHD_0           

 FMI READING HEAD FOR KSTP 66 KPER 1

 CONCENTRATION WILL BE SAVED ON UNIT 1019 AT END OF TIME STEP   66, STRESS PERIOD    1

end timestep


start timestep kper="1" kstp="67" mode="normal"


 FMI READING BUDGET TERMS FOR KSTP 67 KPER 1
    33.5000        FLOW-JA-FACE                 
    33.5000          DATA-SPDIS NPF             
    33.5000            DATA-SAT NPF             
    33.5000                 WEL WEL-1           
    33.5000                 CHD CHD_0           

 FMI READING HEAD FOR KSTP 67 KPER 1

 CONCENTRATION WILL BE SAVED ON UNIT 1019 AT END OF TIME STEP   67, STRESS PERIOD    1

end timestep


start timestep kper="1" kstp="68" mode="normal"


 FMI READING BUDGET TERMS FOR KSTP 68 KPER 1
    34.0000        FLOW-JA-FACE                 
    34.0000          DATA-SPDIS NPF             
    34.0000            DATA-SAT NPF             
    34.0000                 WEL WEL-1           
    34.0000                 CHD CHD_0           

 FMI READING HEAD FOR KSTP 68 KPER 1

 CONCENTRATION WILL BE SAVED ON UNIT 1019 AT END OF TIME STEP   68, STRESS PERIOD    1

end timestep


start timestep kper="1" kstp="69" mode="normal"


 FMI READING BUDGET TERMS FOR KSTP 69 KPER 1
    34.5000        FLOW-JA-FACE                 
    34.5000          DATA-SPDIS NPF             
    34.5000            DATA-SAT NPF             
    34.5000                 WEL WEL-1           
    34.5000                 CHD CHD_0           

 FMI READING HEAD FOR KSTP 69 KPER 1

 CONCENTRATION WILL BE SAVED ON UNIT 1019 AT END OF TIME STEP   69, STRESS PERIOD    1

end timestep


start timestep kper="1" kstp="70" mode="normal"


 FMI READING BUDGET TERMS FOR KSTP 70 KPER 1
    35.0000        FLOW-JA-FACE                 
    35.0000          DATA-SPDIS NPF             
    35.0000            DATA-SAT NPF             
    35.0000                 WEL WEL-1           
    35.0000                 CHD CHD_0           

 FMI READING HEAD FOR KSTP 70 KPER 1

 CONCENTRATION WILL BE SAVED ON UNIT 1019 AT END OF TIME STEP   70, STRESS PERIOD    1

end timestep


start timestep kper="1" kstp="71" mode="normal"


 FMI READING BUDGET TERMS FOR KSTP 71 KPER 1
    35.5000        FLOW-JA-FACE                 
    35.5000          DATA-SPDIS NPF             
    35.5000            DATA-SAT NPF             
    35.5000                 WEL WEL-1           
    35.5000                 CHD CHD_0           

 FMI READING HEAD FOR KSTP 71 KPER 1

 CONCENTRATION WILL BE SAVED ON UNIT 1019 AT END OF TIME STEP   71, STRESS PERIOD    1

end timestep


start timestep kper="1" kstp="72" mode="normal"


 FMI READING BUDGET TERMS FOR KSTP 72 KPER 1
    36.0000        FLOW-JA-FACE                 
    36.0000          DATA-SPDIS NPF             
    36.0000            DATA-SAT NPF             
    36.0000                 WEL WEL-1           
    36.0000                 CHD CHD_0           

 FMI READING HEAD FOR KSTP 72 KPER 1

 CONCENTRATION WILL BE SAVED ON UNIT 1019 AT END OF TIME STEP   72, STRESS PERIOD    1

end timestep


start timestep kper="1" kstp="73" mode="normal"


 FMI READING BUDGET TERMS FOR KSTP 73 KPER 1
    36.5000        FLOW-JA-FACE                 
    36.5000          DATA-SPDIS NPF             
    36.5000            DATA-SAT NPF             
    36.5000                 WEL WEL-1           
    36.5000                 CHD CHD_0           

 FMI READING HEAD FOR KSTP 73 KPER 1

 CONCENTRATION WILL BE SAVED ON UNIT 1019 AT END OF TIME STEP   73, STRESS PERIOD    1

end timestep


start timestep kper="1" kstp="74" mode="normal"


 FMI READING BUDGET TERMS FOR KSTP 74 KPER 1
    37.0000        FLOW-JA-FACE                 
    37.0000          DATA-SPDIS NPF             
    37.0000            DATA-SAT NPF             
    37.0000                 WEL WEL-1           
    37.0000                 CHD CHD_0           

 FMI READING HEAD FOR KSTP 74 KPER 1

 CONCENTRATION WILL BE SAVED ON UNIT 1019 AT END OF TIME STEP   74, STRESS PERIOD    1

end timestep


start timestep kper="1" kstp="75" mode="normal"


 FMI READING BUDGET TERMS FOR KSTP 75 KPER 1
    37.5000        FLOW-JA-FACE                 
    37.5000          DATA-SPDIS NPF             
    37.5000            DATA-SAT NPF             
    37.5000                 WEL WEL-1           
    37.5000                 CHD CHD_0           

 FMI READING HEAD FOR KSTP 75 KPER 1

 CONCENTRATION WILL BE SAVED ON UNIT 1019 AT END OF TIME STEP   75, STRESS PERIOD    1

end timestep


start timestep kper="1" kstp="76" mode="normal"


 FMI READING BUDGET TERMS FOR KSTP 76 KPER 1
    38.0000        FLOW-JA-FACE                 
    38.0000          DATA-SPDIS NPF             
    38.0000            DATA-SAT NPF             
    38.0000                 WEL WEL-1           
    38.0000                 CHD CHD_0           

 FMI READING HEAD FOR KSTP 76 KPER 1

 CONCENTRATION WILL BE SAVED ON UNIT 1019 AT END OF TIME STEP   76, STRESS PERIOD    1

end timestep


start timestep kper="1" kstp="77" mode="normal"


 FMI READING BUDGET TERMS FOR KSTP 77 KPER 1
    38.5000        FLOW-JA-FACE                 
    38.5000          DATA-SPDIS NPF             
    38.5000            DATA-SAT NPF             
    38.5000                 WEL WEL-1           
    38.5000                 CHD CHD_0           

 FMI READING HEAD FOR KSTP 77 KPER 1

 CONCENTRATION WILL BE SAVED ON UNIT 1019 AT END OF TIME STEP   77, STRESS PERIOD    1

end timestep


start timestep kper="1" kstp="78" mode="normal"


 FMI READING BUDGET TERMS FOR KSTP 78 KPER 1
    39.0000        FLOW-JA-FACE                 
    39.0000          DATA-SPDIS NPF             
    39.0000            DATA-SAT NPF             
    39.0000                 WEL WEL-1           
    39.0000                 CHD CHD_0           

 FMI READING HEAD FOR KSTP 78 KPER 1

 CONCENTRATION WILL BE SAVED ON UNIT 1019 AT END OF TIME STEP   78, STRESS PERIOD    1

end timestep


start timestep kper="1" kstp="79" mode="normal"


 FMI READING BUDGET TERMS FOR KSTP 79 KPER 1
    39.5000        FLOW-JA-FACE                 
    39.5000          DATA-SPDIS NPF             
    39.5000            DATA-SAT NPF             
    39.5000                 WEL WEL-1           
    39.5000                 CHD CHD_0           

 FMI READING HEAD FOR KSTP 79 KPER 1

 CONCENTRATION WILL BE SAVED ON UNIT 1019 AT END OF TIME STEP   79, STRESS PERIOD    1

end timestep


start timestep kper="1" kstp="80" mode="normal"


 FMI READING BUDGET TERMS FOR KSTP 80 KPER 1
    40.0000        FLOW-JA-FACE                 
    40.0000          DATA-SPDIS NPF             
    40.0000            DATA-SAT NPF             
    40.0000                 WEL WEL-1           
    40.0000                 CHD CHD_0           

 FMI READING HEAD FOR KSTP 80 KPER 1

 CONCENTRATION WILL BE SAVED ON UNIT 1019 AT END OF TIME STEP   80, STRESS PERIOD    1

end timestep


start timestep kper="1" kstp="81" mode="normal"


 FMI READING BUDGET TERMS FOR KSTP 81 KPER 1
    40.5000        FLOW-JA-FACE                 
    40.5000          DATA-SPDIS NPF             
    40.5000            DATA-SAT NPF             
    40.5000                 WEL WEL-1           
    40.5000                 CHD CHD_0           

 FMI READING HEAD FOR KSTP 81 KPER 1

 CONCENTRATION WILL BE SAVED ON UNIT 1019 AT END OF TIME STEP   81, STRESS PERIOD    1

end timestep


start timestep kper="1" kstp="82" mode="normal"


 FMI READING BUDGET TERMS FOR KSTP 82 KPER 1
    41.0000        FLOW-JA-FACE                 
    41.0000          DATA-SPDIS NPF             
    41.0000            DATA-SAT NPF             
    41.0000                 WEL WEL-1           
    41.0000                 CHD CHD_0           

 FMI READING HEAD FOR KSTP 82 KPER 1

 CONCENTRATION WILL BE SAVED ON UNIT 1019 AT END OF TIME STEP   82, STRESS PERIOD    1

end timestep


start timestep kper="1" kstp="83" mode="normal"


 FMI READING BUDGET TERMS FOR KSTP 83 KPER 1
    41.5000        FLOW-JA-FACE                 
    41.5000          DATA-SPDIS NPF             
    41.5000            DATA-SAT NPF             
    41.5000                 WEL WEL-1           
    41.5000                 CHD CHD_0           

 FMI READING HEAD FOR KSTP 83 KPER 1

 CONCENTRATION WILL BE SAVED ON UNIT 1019 AT END OF TIME STEP   83, STRESS PERIOD    1

end timestep


start timestep kper="1" kstp="84" mode="normal"


 FMI READING BUDGET TERMS FOR KSTP 84 KPER 1
    42.0000        FLOW-JA-FACE                 
    42.0000          DATA-SPDIS NPF             
    42.0000            DATA-SAT NPF             
    42.0000                 WEL WEL-1           
    42.0000                 CHD CHD_0           

 FMI READING HEAD FOR KSTP 84 KPER 1

 CONCENTRATION WILL BE SAVED ON UNIT 1019 AT END OF TIME STEP   84, STRESS PERIOD    1

end timestep


start timestep kper="1" kstp="85" mode="normal"


 FMI READING BUDGET TERMS FOR KSTP 85 KPER 1
    42.5000        FLOW-JA-FACE                 
    42.5000          DATA-SPDIS NPF             
    42.5000            DATA-SAT NPF             
    42.5000                 WEL WEL-1           
    42.5000                 CHD CHD_0           

 FMI READING HEAD FOR KSTP 85 KPER 1

 CONCENTRATION WILL BE SAVED ON UNIT 1019 AT END OF TIME STEP   85, STRESS PERIOD    1

end timestep


start timestep kper="1" kstp="86" mode="normal"


 FMI READING BUDGET TERMS FOR KSTP 86 KPER 1
    43.0000        FLOW-JA-FACE                 
    43.0000          DATA-SPDIS NPF             
    43.0000            DATA-SAT NPF             
    43.0000                 WEL WEL-1           
    43.0000                 CHD CHD_0           

 FMI READING HEAD FOR KSTP 86 KPER 1

 CONCENTRATION WILL BE SAVED ON UNIT 1019 AT END OF TIME STEP   86, STRESS PERIOD    1

end timestep


start timestep kper="1" kstp="87" mode="normal"


 FMI READING BUDGET TERMS FOR KSTP 87 KPER 1
    43.5000        FLOW-JA-FACE                 
    43.5000          DATA-SPDIS NPF             
    43.5000            DATA-SAT NPF             
    43.5000                 WEL WEL-1           
    43.5000                 CHD CHD_0           

 FMI READING HEAD FOR KSTP 87 KPER 1

 CONCENTRATION WILL BE SAVED ON UNIT 1019 AT END OF TIME STEP   87, STRESS PERIOD    1

end timestep


start timestep kper="1" kstp="88" mode="normal"


 FMI READING BUDGET TERMS FOR KSTP 88 KPER 1
    44.0000        FLOW-JA-FACE                 
    44.0000          DATA-SPDIS NPF             
    44.0000            DATA-SAT NPF             
    44.0000                 WEL WEL-1           
    44.0000                 CHD CHD_0           

 FMI READING HEAD FOR KSTP 88 KPER 1

 CONCENTRATION WILL BE SAVED ON UNIT 1019 AT END OF TIME STEP   88, STRESS PERIOD    1

end timestep


start timestep kper="1" kstp="89" mode="normal"


 FMI READING BUDGET TERMS FOR KSTP 89 KPER 1
    44.5000        FLOW-JA-FACE                 
    44.5000          DATA-SPDIS NPF             
    44.5000            DATA-SAT NPF             
    44.5000                 WEL WEL-1           
    44.5000                 CHD CHD_0           

 FMI READING HEAD FOR KSTP 89 KPER 1

 CONCENTRATION WILL BE SAVED ON UNIT 1019 AT END OF TIME STEP   89, STRESS PERIOD    1

end timestep


start timestep kper="1" kstp="90" mode="normal"


 FMI READING BUDGET TERMS FOR KSTP 90 KPER 1
    45.0000        FLOW-JA-FACE                 
    45.0000          DATA-SPDIS NPF             
    45.0000            DATA-SAT NPF             
    45.0000                 WEL WEL-1           
    45.0000                 CHD CHD_0           

 FMI READING HEAD FOR KSTP 90 KPER 1

 CONCENTRATION WILL BE SAVED ON UNIT 1019 AT END OF TIME STEP   90, STRESS PERIOD    1

end timestep


start timestep kper="1" kstp="91" mode="normal"


 FMI READING BUDGET TERMS FOR KSTP 91 KPER 1
    45.5000        FLOW-JA-FACE                 
    45.5000          DATA-SPDIS NPF             
    45.5000            DATA-SAT NPF             
    45.5000                 WEL WEL-1           
    45.5000                 CHD CHD_0           

 FMI READING HEAD FOR KSTP 91 KPER 1

 CONCENTRATION WILL BE SAVED ON UNIT 1019 AT END OF TIME STEP   91, STRESS PERIOD    1

end timestep


start timestep kper="1" kstp="92" mode="normal"


 FMI READING BUDGET TERMS FOR KSTP 92 KPER 1
    46.0000        FLOW-JA-FACE                 
    46.0000          DATA-SPDIS NPF             
    46.0000            DATA-SAT NPF             
    46.0000                 WEL WEL-1           
    46.0000                 CHD CHD_0           

 FMI READING HEAD FOR KSTP 92 KPER 1

 CONCENTRATION WILL BE SAVED ON UNIT 1019 AT END OF TIME STEP   92, STRESS PERIOD    1

end timestep


start timestep kper="1" kstp="93" mode="normal"


 FMI READING BUDGET TERMS FOR KSTP 93 KPER 1
    46.5000        FLOW-JA-FACE                 
    46.5000          DATA-SPDIS NPF             
    46.5000            DATA-SAT NPF             
    46.5000                 WEL WEL-1           
    46.5000                 CHD CHD_0           

 FMI READING HEAD FOR KSTP 93 KPER 1

 CONCENTRATION WILL BE SAVED ON UNIT 1019 AT END OF TIME STEP   93, STRESS PERIOD    1

end timestep


start timestep kper="1" kstp="94" mode="normal"


 FMI READING BUDGET TERMS FOR KSTP 94 KPER 1
    47.0000        FLOW-JA-FACE                 
    47.0000          DATA-SPDIS NPF             
    47.0000            DATA-SAT NPF             
    47.0000                 WEL WEL-1           
    47.0000                 CHD CHD_0           

 FMI READING HEAD FOR KSTP 94 KPER 1

 CONCENTRATION WILL BE SAVED ON UNIT 1019 AT END OF TIME STEP   94, STRESS PERIOD    1

end timestep


start timestep kper="1" kstp="95" mode="normal"


 FMI READING BUDGET TERMS FOR KSTP 95 KPER 1
    47.5000        FLOW-JA-FACE                 
    47.5000          DATA-SPDIS NPF             
    47.5000            DATA-SAT NPF             
    47.5000                 WEL WEL-1           
    47.5000                 CHD CHD_0           

 FMI READING HEAD FOR KSTP 95 KPER 1

 CONCENTRATION WILL BE SAVED ON UNIT 1019 AT END OF TIME STEP   95, STRESS PERIOD    1

end timestep


start timestep kper="1" kstp="96" mode="normal"


 FMI READING BUDGET TERMS FOR KSTP 96 KPER 1
    48.0000        FLOW-JA-FACE                 
    48.0000          DATA-SPDIS NPF             
    48.0000            DATA-SAT NPF             
    48.0000                 WEL WEL-1           
    48.0000                 CHD CHD_0           

 FMI READING HEAD FOR KSTP 96 KPER 1

 CONCENTRATION WILL BE SAVED ON UNIT 1019 AT END OF TIME STEP   96, STRESS PERIOD    1

end timestep


start timestep kper="1" kstp="97" mode="normal"


 FMI READING BUDGET TERMS FOR KSTP 97 KPER 1
    48.5000        FLOW-JA-FACE                 
    48.5000          DATA-SPDIS NPF             
    48.5000            DATA-SAT NPF             
    48.5000                 WEL WEL-1           
    48.5000                 CHD CHD_0           

 FMI READING HEAD FOR KSTP 97 KPER 1

 CONCENTRATION WILL BE SAVED ON UNIT 1019 AT END OF TIME STEP   97, STRESS PERIOD    1

end timestep


start timestep kper="1" kstp="98" mode="normal"


 FMI READING BUDGET TERMS FOR KSTP 98 KPER 1
    49.0000        FLOW-JA-FACE                 
    49.0000          DATA-SPDIS NPF             
    49.0000            DATA-SAT NPF             
    49.0000                 WEL WEL-1           
    49.0000                 CHD CHD_0           

 FMI READING HEAD FOR KSTP 98 KPER 1

 CONCENTRATION WILL BE SAVED ON UNIT 1019 AT END OF TIME STEP   98, STRESS PERIOD    1

end timestep


start timestep kper="1" kstp="99" mode="normal"


 FMI READING BUDGET TERMS FOR KSTP 99 KPER 1
    49.5000        FLOW-JA-FACE                 
    49.5000          DATA-SPDIS NPF             
    49.5000            DATA-SAT NPF             
    49.5000                 WEL WEL-1           
    49.5000                 CHD CHD_0           

 FMI READING HEAD FOR KSTP 99 KPER 1

 CONCENTRATION WILL BE SAVED ON UNIT 1019 AT END OF TIME STEP   99, STRESS PERIOD    1

end timestep


start timestep kper="1" kstp="100" mode="normal"


 FMI READING BUDGET TERMS FOR KSTP 100 KPER 1
    50.0000        FLOW-JA-FACE                 
    50.0000          DATA-SPDIS NPF             
    50.0000            DATA-SAT NPF             
    50.0000                 WEL WEL-1           
    50.0000                 CHD CHD_0           

 FMI READING HEAD FOR KSTP 100 KPER 1

 CONCENTRATION WILL BE SAVED ON UNIT 1019 AT END OF TIME STEP  100, STRESS PERIOD    1

end timestep


start timestep kper="1" kstp="101" mode="normal"


 FMI READING BUDGET TERMS FOR KSTP 101 KPER 1
    50.5000        FLOW-JA-FACE                 
    50.5000          DATA-SPDIS NPF             
    50.5000            DATA-SAT NPF             
    50.5000                 WEL WEL-1           
    50.5000                 CHD CHD_0           

 FMI READING HEAD FOR KSTP 101 KPER 1

 CONCENTRATION WILL BE SAVED ON UNIT 1019 AT END OF TIME STEP  101, STRESS PERIOD    1

end timestep


start timestep kper="1" kstp="102" mode="normal"


 FMI READING BUDGET TERMS FOR KSTP 102 KPER 1
    51.0000        FLOW-JA-FACE                 
    51.0000          DATA-SPDIS NPF             
    51.0000            DATA-SAT NPF             
    51.0000                 WEL WEL-1           
    51.0000                 CHD CHD_0           

 FMI READING HEAD FOR KSTP 102 KPER 1

 CONCENTRATION WILL BE SAVED ON UNIT 1019 AT END OF TIME STEP  102, STRESS PERIOD    1

end timestep


start timestep kper="1" kstp="103" mode="normal"


 FMI READING BUDGET TERMS FOR KSTP 103 KPER 1
    51.5000        FLOW-JA-FACE                 
    51.5000          DATA-SPDIS NPF             
    51.5000            DATA-SAT NPF             
    51.5000                 WEL WEL-1           
    51.5000                 CHD CHD_0           

 FMI READING HEAD FOR KSTP 103 KPER 1

 CONCENTRATION WILL BE SAVED ON UNIT 1019 AT END OF TIME STEP  103, STRESS PERIOD    1

end timestep


start timestep kper="1" kstp="104" mode="normal"


 FMI READING BUDGET TERMS FOR KSTP 104 KPER 1
    52.0000        FLOW-JA-FACE                 
    52.0000          DATA-SPDIS NPF             
    52.0000            DATA-SAT NPF             
    52.0000                 WEL WEL-1           
    52.0000                 CHD CHD_0           

 FMI READING HEAD FOR KSTP 104 KPER 1

 CONCENTRATION WILL BE SAVED ON UNIT 1019 AT END OF TIME STEP  104, STRESS PERIOD    1

end timestep


start timestep kper="1" kstp="105" mode="normal"


 FMI READING BUDGET TERMS FOR KSTP 105 KPER 1
    52.5000        FLOW-JA-FACE                 
    52.5000          DATA-SPDIS NPF             
    52.5000            DATA-SAT NPF             
    52.5000                 WEL WEL-1           
    52.5000                 CHD CHD_0           

 FMI READING HEAD FOR KSTP 105 KPER 1

 CONCENTRATION WILL BE SAVED ON UNIT 1019 AT END OF TIME STEP  105, STRESS PERIOD    1

end timestep


start timestep kper="1" kstp="106" mode="normal"


 FMI READING BUDGET TERMS FOR KSTP 106 KPER 1
    53.0000        FLOW-JA-FACE                 
    53.0000          DATA-SPDIS NPF             
    53.0000            DATA-SAT NPF             
    53.0000                 WEL WEL-1           
    53.0000                 CHD CHD_0           

 FMI READING HEAD FOR KSTP 106 KPER 1

 CONCENTRATION WILL BE SAVED ON UNIT 1019 AT END OF TIME STEP  106, STRESS PERIOD    1

end timestep


start timestep kper="1" kstp="107" mode="normal"


 FMI READING BUDGET TERMS FOR KSTP 107 KPER 1
    53.5000        FLOW-JA-FACE                 
    53.5000          DATA-SPDIS NPF             
    53.5000            DATA-SAT NPF             
    53.5000                 WEL WEL-1           
    53.5000                 CHD CHD_0           

 FMI READING HEAD FOR KSTP 107 KPER 1

 CONCENTRATION WILL BE SAVED ON UNIT 1019 AT END OF TIME STEP  107, STRESS PERIOD    1

end timestep


start timestep kper="1" kstp="108" mode="normal"


 FMI READING BUDGET TERMS FOR KSTP 108 KPER 1
    54.0000        FLOW-JA-FACE                 
    54.0000          DATA-SPDIS NPF             
    54.0000            DATA-SAT NPF             
    54.0000                 WEL WEL-1           
    54.0000                 CHD CHD_0           

 FMI READING HEAD FOR KSTP 108 KPER 1

 CONCENTRATION WILL BE SAVED ON UNIT 1019 AT END OF TIME STEP  108, STRESS PERIOD    1

end timestep


start timestep kper="1" kstp="109" mode="normal"


 FMI READING BUDGET TERMS FOR KSTP 109 KPER 1
    54.5000        FLOW-JA-FACE                 
    54.5000          DATA-SPDIS NPF             
    54.5000            DATA-SAT NPF             
    54.5000                 WEL WEL-1           
    54.5000                 CHD CHD_0           

 FMI READING HEAD FOR KSTP 109 KPER 1

 CONCENTRATION WILL BE SAVED ON UNIT 1019 AT END OF TIME STEP  109, STRESS PERIOD    1

end timestep


start timestep kper="1" kstp="110" mode="normal"


 FMI READING BUDGET TERMS FOR KSTP 110 KPER 1
    55.0000        FLOW-JA-FACE                 
    55.0000          DATA-SPDIS NPF             
    55.0000            DATA-SAT NPF             
    55.0000                 WEL WEL-1           
    55.0000                 CHD CHD_0           

 FMI READING HEAD FOR KSTP 110 KPER 1

 CONCENTRATION WILL BE SAVED ON UNIT 1019 AT END OF TIME STEP  110, STRESS PERIOD    1

end timestep


start timestep kper="1" kstp="111" mode="normal"


 FMI READING BUDGET TERMS FOR KSTP 111 KPER 1
    55.5000        FLOW-JA-FACE                 
    55.5000          DATA-SPDIS NPF             
    55.5000            DATA-SAT NPF             
    55.5000                 WEL WEL-1           
    55.5000                 CHD CHD_0           

 FMI READING HEAD FOR KSTP 111 KPER 1

 CONCENTRATION WILL BE SAVED ON UNIT 1019 AT END OF TIME STEP  111, STRESS PERIOD    1

end timestep


start timestep kper="1" kstp="112" mode="normal"


 FMI READING BUDGET TERMS FOR KSTP 112 KPER 1
    56.0000        FLOW-JA-FACE                 
    56.0000          DATA-SPDIS NPF             
    56.0000            DATA-SAT NPF             
    56.0000                 WEL WEL-1           
    56.0000                 CHD CHD_0           

 FMI READING HEAD FOR KSTP 112 KPER 1

 CONCENTRATION WILL BE SAVED ON UNIT 1019 AT END OF TIME STEP  112, STRESS PERIOD    1

end timestep


start timestep kper="1" kstp="113" mode="normal"


 FMI READING BUDGET TERMS FOR KSTP 113 KPER 1
    56.5000        FLOW-JA-FACE                 
    56.5000          DATA-SPDIS NPF             
    56.5000            DATA-SAT NPF             
    56.5000                 WEL WEL-1           
    56.5000                 CHD CHD_0           

 FMI READING HEAD FOR KSTP 113 KPER 1

 CONCENTRATION WILL BE SAVED ON UNIT 1019 AT END OF TIME STEP  113, STRESS PERIOD    1

end timestep


start timestep kper="1" kstp="114" mode="normal"


 FMI READING BUDGET TERMS FOR KSTP 114 KPER 1
    57.0000        FLOW-JA-FACE                 
    57.0000          DATA-SPDIS NPF             
    57.0000            DATA-SAT NPF             
    57.0000                 WEL WEL-1           
    57.0000                 CHD CHD_0           

 FMI READING HEAD FOR KSTP 114 KPER 1

 CONCENTRATION WILL BE SAVED ON UNIT 1019 AT END OF TIME STEP  114, STRESS PERIOD    1

end timestep


start timestep kper="1" kstp="115" mode="normal"


 FMI READING BUDGET TERMS FOR KSTP 115 KPER 1
    57.5000        FLOW-JA-FACE                 
    57.5000          DATA-SPDIS NPF             
    57.5000            DATA-SAT NPF             
    57.5000                 WEL WEL-1           
    57.5000                 CHD CHD_0           

 FMI READING HEAD FOR KSTP 115 KPER 1

 CONCENTRATION WILL BE SAVED ON UNIT 1019 AT END OF TIME STEP  115, STRESS PERIOD    1

end timestep


start timestep kper="1" kstp="116" mode="normal"


 FMI READING BUDGET TERMS FOR KSTP 116 KPER 1
    58.0000        FLOW-JA-FACE                 
    58.0000          DATA-SPDIS NPF             
    58.0000            DATA-SAT NPF             
    58.0000                 WEL WEL-1           
    58.0000                 CHD CHD_0           

 FMI READING HEAD FOR KSTP 116 KPER 1

 CONCENTRATION WILL BE SAVED ON UNIT 1019 AT END OF TIME STEP  116, STRESS PERIOD    1

end timestep


start timestep kper="1" kstp="117" mode="normal"


 FMI READING BUDGET TERMS FOR KSTP 117 KPER 1
    58.5000        FLOW-JA-FACE                 
    58.5000          DATA-SPDIS NPF             
    58.5000            DATA-SAT NPF             
    58.5000                 WEL WEL-1           
    58.5000                 CHD CHD_0           

 FMI READING HEAD FOR KSTP 117 KPER 1

 CONCENTRATION WILL BE SAVED ON UNIT 1019 AT END OF TIME STEP  117, STRESS PERIOD    1

end timestep


start timestep kper="1" kstp="118" mode="normal"


 FMI READING BUDGET TERMS FOR KSTP 118 KPER 1
    59.0000        FLOW-JA-FACE                 
    59.0000          DATA-SPDIS NPF             
    59.0000            DATA-SAT NPF             
    59.0000                 WEL WEL-1           
    59.0000                 CHD CHD_0           

 FMI READING HEAD FOR KSTP 118 KPER 1

 CONCENTRATION WILL BE SAVED ON UNIT 1019 AT END OF TIME STEP  118, STRESS PERIOD    1

end timestep


start timestep kper="1" kstp="119" mode="normal"


 FMI READING BUDGET TERMS FOR KSTP 119 KPER 1
    59.5000        FLOW-JA-FACE                 
    59.5000          DATA-SPDIS NPF             
    59.5000            DATA-SAT NPF             
    59.5000                 WEL WEL-1           
    59.5000                 CHD CHD_0           

 FMI READING HEAD FOR KSTP 119 KPER 1

 CONCENTRATION WILL BE SAVED ON UNIT 1019 AT END OF TIME STEP  119, STRESS PERIOD    1

end timestep


start timestep kper="1" kstp="120" mode="normal"


 FMI READING BUDGET TERMS FOR KSTP 120 KPER 1
    60.0000        FLOW-JA-FACE                 
    60.0000          DATA-SPDIS NPF             
    60.0000            DATA-SAT NPF             
    60.0000                 WEL WEL-1           
    60.0000                 CHD CHD_0           

 FMI READING HEAD FOR KSTP 120 KPER 1

 CONCENTRATION WILL BE SAVED ON UNIT 1019 AT END OF TIME STEP  120, STRESS PERIOD    1

end timestep


start timestep kper="1" kstp="121" mode="normal"


 FMI READING BUDGET TERMS FOR KSTP 121 KPER 1
    60.5000        FLOW-JA-FACE                 
    60.5000          DATA-SPDIS NPF             
    60.5000            DATA-SAT NPF             
    60.5000                 WEL WEL-1           
    60.5000                 CHD CHD_0           

 FMI READING HEAD FOR KSTP 121 KPER 1

 CONCENTRATION WILL BE SAVED ON UNIT 1019 AT END OF TIME STEP  121, STRESS PERIOD    1

end timestep


start timestep kper="1" kstp="122" mode="normal"


 FMI READING BUDGET TERMS FOR KSTP 122 KPER 1
    61.0000        FLOW-JA-FACE                 
    61.0000          DATA-SPDIS NPF             
    61.0000            DATA-SAT NPF             
    61.0000                 WEL WEL-1           
    61.0000                 CHD CHD_0           

 FMI READING HEAD FOR KSTP 122 KPER 1

 CONCENTRATION WILL BE SAVED ON UNIT 1019 AT END OF TIME STEP  122, STRESS PERIOD    1

end timestep


start timestep kper="1" kstp="123" mode="normal"


 FMI READING BUDGET TERMS FOR KSTP 123 KPER 1
    61.5000        FLOW-JA-FACE                 
    61.5000          DATA-SPDIS NPF             
    61.5000            DATA-SAT NPF             
    61.5000                 WEL WEL-1           
    61.5000                 CHD CHD_0           

 FMI READING HEAD FOR KSTP 123 KPER 1

 CONCENTRATION WILL BE SAVED ON UNIT 1019 AT END OF TIME STEP  123, STRESS PERIOD    1

end timestep


start timestep kper="1" kstp="124" mode="normal"


 FMI READING BUDGET TERMS FOR KSTP 124 KPER 1
    62.0000        FLOW-JA-FACE                 
    62.0000          DATA-SPDIS NPF             
    62.0000            DATA-SAT NPF             
    62.0000                 WEL WEL-1           
    62.0000                 CHD CHD_0           

 FMI READING HEAD FOR KSTP 124 KPER 1

 CONCENTRATION WILL BE SAVED ON UNIT 1019 AT END OF TIME STEP  124, STRESS PERIOD    1

end timestep


start timestep kper="1" kstp="125" mode="normal"


 FMI READING BUDGET TERMS FOR KSTP 125 KPER 1
    62.5000        FLOW-JA-FACE                 
    62.5000          DATA-SPDIS NPF             
    62.5000            DATA-SAT NPF             
    62.5000                 WEL WEL-1           
    62.5000                 CHD CHD_0           

 FMI READING HEAD FOR KSTP 125 KPER 1

 CONCENTRATION WILL BE SAVED ON UNIT 1019 AT END OF TIME STEP  125, STRESS PERIOD    1

end timestep


start timestep kper="1" kstp="126" mode="normal"


 FMI READING BUDGET TERMS FOR KSTP 126 KPER 1
    63.0000        FLOW-JA-FACE                 
    63.0000          DATA-SPDIS NPF             
    63.0000            DATA-SAT NPF             
    63.0000                 WEL WEL-1           
    63.0000                 CHD CHD_0           

 FMI READING HEAD FOR KSTP 126 KPER 1

 CONCENTRATION WILL BE SAVED ON UNIT 1019 AT END OF TIME STEP  126, STRESS PERIOD    1

end timestep


start timestep kper="1" kstp="127" mode="normal"


 FMI READING BUDGET TERMS FOR KSTP 127 KPER 1
    63.5000        FLOW-JA-FACE                 
    63.5000          DATA-SPDIS NPF             
    63.5000            DATA-SAT NPF             
    63.5000                 WEL WEL-1           
    63.5000                 CHD CHD_0           

 FMI READING HEAD FOR KSTP 127 KPER 1

 CONCENTRATION WILL BE SAVED ON UNIT 1019 AT END OF TIME STEP  127, STRESS PERIOD    1

end timestep


start timestep kper="1" kstp="128" mode="normal"


 FMI READING BUDGET TERMS FOR KSTP 128 KPER 1
    64.0000        FLOW-JA-FACE                 
    64.0000          DATA-SPDIS NPF             
    64.0000            DATA-SAT NPF             
    64.0000                 WEL WEL-1           
    64.0000                 CHD CHD_0           

 FMI READING HEAD FOR KSTP 128 KPER 1

 CONCENTRATION WILL BE SAVED ON UNIT 1019 AT END OF TIME STEP  128, STRESS PERIOD    1

end timestep


start timestep kper="1" kstp="129" mode="normal"


 FMI READING BUDGET TERMS FOR KSTP 129 KPER 1
    64.5000        FLOW-JA-FACE                 
    64.5000          DATA-SPDIS NPF             
    64.5000            DATA-SAT NPF             
    64.5000                 WEL WEL-1           
    64.5000                 CHD CHD_0           

 FMI READING HEAD FOR KSTP 129 KPER 1

 CONCENTRATION WILL BE SAVED ON UNIT 1019 AT END OF TIME STEP  129, STRESS PERIOD    1

end timestep


start timestep kper="1" kstp="130" mode="normal"


 FMI READING BUDGET TERMS FOR KSTP 130 KPER 1
    65.0000        FLOW-JA-FACE                 
    65.0000          DATA-SPDIS NPF             
    65.0000            DATA-SAT NPF             
    65.0000                 WEL WEL-1           
    65.0000                 CHD CHD_0           

 FMI READING HEAD FOR KSTP 130 KPER 1

 CONCENTRATION WILL BE SAVED ON UNIT 1019 AT END OF TIME STEP  130, STRESS PERIOD    1

end timestep


start timestep kper="1" kstp="131" mode="normal"


 FMI READING BUDGET TERMS FOR KSTP 131 KPER 1
    65.5000        FLOW-JA-FACE                 
    65.5000          DATA-SPDIS NPF             
    65.5000            DATA-SAT NPF             
    65.5000                 WEL WEL-1           
    65.5000                 CHD CHD_0           

 FMI READING HEAD FOR KSTP 131 KPER 1

 CONCENTRATION WILL BE SAVED ON UNIT 1019 AT END OF TIME STEP  131, STRESS PERIOD    1

end timestep


start timestep kper="1" kstp="132" mode="normal"


 FMI READING BUDGET TERMS FOR KSTP 132 KPER 1
    66.0000        FLOW-JA-FACE                 
    66.0000          DATA-SPDIS NPF             
    66.0000            DATA-SAT NPF             
    66.0000                 WEL WEL-1           
    66.0000                 CHD CHD_0           

 FMI READING HEAD FOR KSTP 132 KPER 1

 CONCENTRATION WILL BE SAVED ON UNIT 1019 AT END OF TIME STEP  132, STRESS PERIOD    1

end timestep


start timestep kper="1" kstp="133" mode="normal"


 FMI READING BUDGET TERMS FOR KSTP 133 KPER 1
    66.5000        FLOW-JA-FACE                 
    66.5000          DATA-SPDIS NPF             
    66.5000            DATA-SAT NPF             
    66.5000                 WEL WEL-1           
    66.5000                 CHD CHD_0           

 FMI READING HEAD FOR KSTP 133 KPER 1

 CONCENTRATION WILL BE SAVED ON UNIT 1019 AT END OF TIME STEP  133, STRESS PERIOD    1

end timestep


start timestep kper="1" kstp="134" mode="normal"


 FMI READING BUDGET TERMS FOR KSTP 134 KPER 1
    67.0000        FLOW-JA-FACE                 
    67.0000          DATA-SPDIS NPF             
    67.0000            DATA-SAT NPF             
    67.0000                 WEL WEL-1           
    67.0000                 CHD CHD_0           

 FMI READING HEAD FOR KSTP 134 KPER 1

 CONCENTRATION WILL BE SAVED ON UNIT 1019 AT END OF TIME STEP  134, STRESS PERIOD    1

end timestep


start timestep kper="1" kstp="135" mode="normal"


 FMI READING BUDGET TERMS FOR KSTP 135 KPER 1
    67.5000        FLOW-JA-FACE                 
    67.5000          DATA-SPDIS NPF             
    67.5000            DATA-SAT NPF             
    67.5000                 WEL WEL-1           
    67.5000                 CHD CHD_0           

 FMI READING HEAD FOR KSTP 135 KPER 1

 CONCENTRATION WILL BE SAVED ON UNIT 1019 AT END OF TIME STEP  135, STRESS PERIOD    1

end timestep


start timestep kper="1" kstp="136" mode="normal"


 FMI READING BUDGET TERMS FOR KSTP 136 KPER 1
    68.0000        FLOW-JA-FACE                 
    68.0000          DATA-SPDIS NPF             
    68.0000            DATA-SAT NPF             
    68.0000                 WEL WEL-1           
    68.0000                 CHD CHD_0           

 FMI READING HEAD FOR KSTP 136 KPER 1

 CONCENTRATION WILL BE SAVED ON UNIT 1019 AT END OF TIME STEP  136, STRESS PERIOD    1

end timestep


start timestep kper="1" kstp="137" mode="normal"


 FMI READING BUDGET TERMS FOR KSTP 137 KPER 1
    68.5000        FLOW-JA-FACE                 
    68.5000          DATA-SPDIS NPF             
    68.5000            DATA-SAT NPF             
    68.5000                 WEL WEL-1           
    68.5000                 CHD CHD_0           

 FMI READING HEAD FOR KSTP 137 KPER 1

 CONCENTRATION WILL BE SAVED ON UNIT 1019 AT END OF TIME STEP  137, STRESS PERIOD    1

end timestep


start timestep kper="1" kstp="138" mode="normal"


 FMI READING BUDGET TERMS FOR KSTP 138 KPER 1
    69.0000        FLOW-JA-FACE                 
    69.0000          DATA-SPDIS NPF             
    69.0000            DATA-SAT NPF             
    69.0000                 WEL WEL-1           
    69.0000                 CHD CHD_0           

 FMI READING HEAD FOR KSTP 138 KPER 1

 CONCENTRATION WILL BE SAVED ON UNIT 1019 AT END OF TIME STEP  138, STRESS PERIOD    1

end timestep


start timestep kper="1" kstp="139" mode="normal"


 FMI READING BUDGET TERMS FOR KSTP 139 KPER 1
    69.5000        FLOW-JA-FACE                 
    69.5000          DATA-SPDIS NPF             
    69.5000            DATA-SAT NPF             
    69.5000                 WEL WEL-1           
    69.5000                 CHD CHD_0           

 FMI READING HEAD FOR KSTP 139 KPER 1

 CONCENTRATION WILL BE SAVED ON UNIT 1019 AT END OF TIME STEP  139, STRESS PERIOD    1

end timestep


start timestep kper="1" kstp="140" mode="normal"


 FMI READING BUDGET TERMS FOR KSTP 140 KPER 1
    70.0000        FLOW-JA-FACE                 
    70.0000          DATA-SPDIS NPF             
    70.0000            DATA-SAT NPF             
    70.0000                 WEL WEL-1           
    70.0000                 CHD CHD_0           

 FMI READING HEAD FOR KSTP 140 KPER 1

 CONCENTRATION WILL BE SAVED ON UNIT 1019 AT END OF TIME STEP  140, STRESS PERIOD    1

end timestep


start timestep kper="1" kstp="141" mode="normal"


 FMI READING BUDGET TERMS FOR KSTP 141 KPER 1
    70.5000        FLOW-JA-FACE                 
    70.5000          DATA-SPDIS NPF             
    70.5000            DATA-SAT NPF             
    70.5000                 WEL WEL-1           
    70.5000                 CHD CHD_0           

 FMI READING HEAD FOR KSTP 141 KPER 1

 CONCENTRATION WILL BE SAVED ON UNIT 1019 AT END OF TIME STEP  141, STRESS PERIOD    1

end timestep


start timestep kper="1" kstp="142" mode="normal"


 FMI READING BUDGET TERMS FOR KSTP 142 KPER 1
    71.0000        FLOW-JA-FACE                 
    71.0000          DATA-SPDIS NPF             
    71.0000            DATA-SAT NPF             
    71.0000                 WEL WEL-1           
    71.0000                 CHD CHD_0           

 FMI READING HEAD FOR KSTP 142 KPER 1

 CONCENTRATION WILL BE SAVED ON UNIT 1019 AT END OF TIME STEP  142, STRESS PERIOD    1

end timestep


start timestep kper="1" kstp="143" mode="normal"


 FMI READING BUDGET TERMS FOR KSTP 143 KPER 1
    71.5000        FLOW-JA-FACE                 
    71.5000          DATA-SPDIS NPF             
    71.5000            DATA-SAT NPF             
    71.5000                 WEL WEL-1           
    71.5000                 CHD CHD_0           

 FMI READING HEAD FOR KSTP 143 KPER 1

 CONCENTRATION WILL BE SAVED ON UNIT 1019 AT END OF TIME STEP  143, STRESS PERIOD    1

end timestep


start timestep kper="1" kstp="144" mode="normal"


 FMI READING BUDGET TERMS FOR KSTP 144 KPER 1
    72.0000        FLOW-JA-FACE                 
    72.0000          DATA-SPDIS NPF             
    72.0000            DATA-SAT NPF             
    72.0000                 WEL WEL-1           
    72.0000                 CHD CHD_0           

 FMI READING HEAD FOR KSTP 144 KPER 1

 CONCENTRATION WILL BE SAVED ON UNIT 1019 AT END OF TIME STEP  144, STRESS PERIOD    1

end timestep


start timestep kper="1" kstp="145" mode="normal"


 FMI READING BUDGET TERMS FOR KSTP 145 KPER 1
    72.5000        FLOW-JA-FACE                 
    72.5000          DATA-SPDIS NPF             
    72.5000            DATA-SAT NPF             
    72.5000                 WEL WEL-1           
    72.5000                 CHD CHD_0           

 FMI READING HEAD FOR KSTP 145 KPER 1

 CONCENTRATION WILL BE SAVED ON UNIT 1019 AT END OF TIME STEP  145, STRESS PERIOD    1

end timestep


start timestep kper="1" kstp="146" mode="normal"


 FMI READING BUDGET TERMS FOR KSTP 146 KPER 1
    73.0000        FLOW-JA-FACE                 
    73.0000          DATA-SPDIS NPF             
    73.0000            DATA-SAT NPF             
    73.0000                 WEL WEL-1           
    73.0000                 CHD CHD_0           

 FMI READING HEAD FOR KSTP 146 KPER 1

 CONCENTRATION WILL BE SAVED ON UNIT 1019 AT END OF TIME STEP  146, STRESS PERIOD    1

end timestep


start timestep kper="1" kstp="147" mode="normal"


 FMI READING BUDGET TERMS FOR KSTP 147 KPER 1
[...]


 FMI READING BUDGET TERMS FOR KSTP 211 KPER 1
    105.500        FLOW-JA-FACE                 
    105.500          DATA-SPDIS NPF             
    105.500            DATA-SAT NPF             
    105.500                 WEL WEL-1           
    105.500                 CHD CHD_0           

 FMI READING HEAD FOR KSTP 211 KPER 1

 CONCENTRATION WILL BE SAVED ON UNIT 1019 AT END OF TIME STEP  211, STRESS PERIOD    1

end timestep


start timestep kper="1" kstp="212" mode="normal"


 FMI READING BUDGET TERMS FOR KSTP 212 KPER 1
    106.000        FLOW-JA-FACE                 
    106.000          DATA-SPDIS NPF             
    106.000            DATA-SAT NPF             
    106.000                 WEL WEL-1           
    106.000                 CHD CHD_0           

 FMI READING HEAD FOR KSTP 212 KPER 1

 CONCENTRATION WILL BE SAVED ON UNIT 1019 AT END OF TIME STEP  212, STRESS PERIOD    1

end timestep


start timestep kper="1" kstp="213" mode="normal"


 FMI READING BUDGET TERMS FOR KSTP 213 KPER 1
    106.500        FLOW-JA-FACE                 
    106.500          DATA-SPDIS NPF             
    106.500            DATA-SAT NPF             
    106.500                 WEL WEL-1           
    106.500                 CHD CHD_0           

 FMI READING HEAD FOR KSTP 213 KPER 1

 CONCENTRATION WILL BE SAVED ON UNIT 1019 AT END OF TIME STEP  213, STRESS PERIOD    1

end timestep


start timestep kper="1" kstp="214" mode="normal"


 FMI READING BUDGET TERMS FOR KSTP 214 KPER 1
    107.000        FLOW-JA-FACE                 
    107.000          DATA-SPDIS NPF             
    107.000            DATA-SAT NPF             
    107.000                 WEL WEL-1           
    107.000                 CHD CHD_0           

 FMI READING HEAD FOR KSTP 214 KPER 1

 CONCENTRATION WILL BE SAVED ON UNIT 1019 AT END OF TIME STEP  214, STRESS PERIOD    1

end timestep


start timestep kper="1" kstp="215" mode="normal"


 FMI READING BUDGET TERMS FOR KSTP 215 KPER 1
    107.500        FLOW-JA-FACE                 
    107.500          DATA-SPDIS NPF             
    107.500            DATA-SAT NPF             
    107.500                 WEL WEL-1           
    107.500                 CHD CHD_0           

 FMI READING HEAD FOR KSTP 215 KPER 1

 CONCENTRATION WILL BE SAVED ON UNIT 1019 AT END OF TIME STEP  215, STRESS PERIOD    1

end timestep


start timestep kper="1" kstp="216" mode="normal"


 FMI READING BUDGET TERMS FOR KSTP 216 KPER 1
    108.000        FLOW-JA-FACE                 
    108.000          DATA-SPDIS NPF             
    108.000            DATA-SAT NPF             
    108.000                 WEL WEL-1           
    108.000                 CHD CHD_0           

 FMI READING HEAD FOR KSTP 216 KPER 1

 CONCENTRATION WILL BE SAVED ON UNIT 1019 AT END OF TIME STEP  216, STRESS PERIOD    1

end timestep


start timestep kper="1" kstp="217" mode="normal"


 FMI READING BUDGET TERMS FOR KSTP 217 KPER 1
    108.500        FLOW-JA-FACE                 
    108.500          DATA-SPDIS NPF             
    108.500            DATA-SAT NPF             
    108.500                 WEL WEL-1           
    108.500                 CHD CHD_0           

 FMI READING HEAD FOR KSTP 217 KPER 1

 CONCENTRATION WILL BE SAVED ON UNIT 1019 AT END OF TIME STEP  217, STRESS PERIOD    1

end timestep


start timestep kper="1" kstp="218" mode="normal"


 FMI READING BUDGET TERMS FOR KSTP 218 KPER 1
    109.000        FLOW-JA-FACE                 
    109.000          DATA-SPDIS NPF             
    109.000            DATA-SAT NPF             
    109.000                 WEL WEL-1           
    109.000                 CHD CHD_0           

 FMI READING HEAD FOR KSTP 218 KPER 1

 CONCENTRATION WILL BE SAVED ON UNIT 1019 AT END OF TIME STEP  218, STRESS PERIOD    1

end timestep


start timestep kper="1" kstp="219" mode="normal"


 FMI READING BUDGET TERMS FOR KSTP 219 KPER 1
    109.500        FLOW-JA-FACE                 
    109.500          DATA-SPDIS NPF             
    109.500            DATA-SAT NPF             
    109.500                 WEL WEL-1           
    109.500                 CHD CHD_0           

 FMI READING HEAD FOR KSTP 219 KPER 1

 CONCENTRATION WILL BE SAVED ON UNIT 1019 AT END OF TIME STEP  219, STRESS PERIOD    1

end timestep


start timestep kper="1" kstp="220" mode="normal"


 FMI READING BUDGET TERMS FOR KSTP 220 KPER 1
    110.000        FLOW-JA-FACE                 
    110.000          DATA-SPDIS NPF             
    110.000            DATA-SAT NPF             
    110.000                 WEL WEL-1           
    110.000                 CHD CHD_0           

 FMI READING HEAD FOR KSTP 220 KPER 1

 CONCENTRATION WILL BE SAVED ON UNIT 1019 AT END OF TIME STEP  220, STRESS PERIOD    1

end timestep


start timestep kper="1" kstp="221" mode="normal"


 FMI READING BUDGET TERMS FOR KSTP 221 KPER 1
    110.500        FLOW-JA-FACE                 
    110.500          DATA-SPDIS NPF             
    110.500            DATA-SAT NPF             
    110.500                 WEL WEL-1           
    110.500                 CHD CHD_0           

 FMI READING HEAD FOR KSTP 221 KPER 1

 CONCENTRATION WILL BE SAVED ON UNIT 1019 AT END OF TIME STEP  221, STRESS PERIOD    1

end timestep


start timestep kper="1" kstp="222" mode="normal"


 FMI READING BUDGET TERMS FOR KSTP 222 KPER 1
    111.000        FLOW-JA-FACE                 
    111.000          DATA-SPDIS NPF             
    111.000            DATA-SAT NPF             
    111.000                 WEL WEL-1           
    111.000                 CHD CHD_0           

 FMI READING HEAD FOR KSTP 222 KPER 1

 CONCENTRATION WILL BE SAVED ON UNIT 1019 AT END OF TIME STEP  222, STRESS PERIOD    1

end timestep


start timestep kper="1" kstp="223" mode="normal"


 FMI READING BUDGET TERMS FOR KSTP 223 KPER 1
    111.500        FLOW-JA-FACE                 
    111.500          DATA-SPDIS NPF             
    111.500            DATA-SAT NPF             
    111.500                 WEL WEL-1           
    111.500                 CHD CHD_0           

 FMI READING HEAD FOR KSTP 223 KPER 1

 CONCENTRATION WILL BE SAVED ON UNIT 1019 AT END OF TIME STEP  223, STRESS PERIOD    1

end timestep


start timestep kper="1" kstp="224" mode="normal"


 FMI READING BUDGET TERMS FOR KSTP 224 KPER 1
    112.000        FLOW-JA-FACE                 
    112.000          DATA-SPDIS NPF             
    112.000            DATA-SAT NPF             
    112.000                 WEL WEL-1           
    112.000                 CHD CHD_0           

 FMI READING HEAD FOR KSTP 224 KPER 1

 CONCENTRATION WILL BE SAVED ON UNIT 1019 AT END OF TIME STEP  224, STRESS PERIOD    1

end timestep


start timestep kper="1" kstp="225" mode="normal"


 FMI READING BUDGET TERMS FOR KSTP 225 KPER 1
    112.500        FLOW-JA-FACE                 
    112.500          DATA-SPDIS NPF             
    112.500            DATA-SAT NPF             
    112.500                 WEL WEL-1           
    112.500                 CHD CHD_0           

 FMI READING HEAD FOR KSTP 225 KPER 1

 CONCENTRATION WILL BE SAVED ON UNIT 1019 AT END OF TIME STEP  225, STRESS PERIOD    1

end timestep


start timestep kper="1" kstp="226" mode="normal"


 FMI READING BUDGET TERMS FOR KSTP 226 KPER 1
    113.000        FLOW-JA-FACE                 
    113.000          DATA-SPDIS NPF             
    113.000            DATA-SAT NPF             
    113.000                 WEL WEL-1           
    113.000                 CHD CHD_0           

 FMI READING HEAD FOR KSTP 226 KPER 1

 CONCENTRATION WILL BE SAVED ON UNIT 1019 AT END OF TIME STEP  226, STRESS PERIOD    1

end timestep


start timestep kper="1" kstp="227" mode="normal"


 FMI READING BUDGET TERMS FOR KSTP 227 KPER 1
    113.500        FLOW-JA-FACE                 
    113.500          DATA-SPDIS NPF             
    113.500            DATA-SAT NPF             
    113.500                 WEL WEL-1           
    113.500                 CHD CHD_0           

 FMI READING HEAD FOR KSTP 227 KPER 1

 CONCENTRATION WILL BE SAVED ON UNIT 1019 AT END OF TIME STEP  227, STRESS PERIOD    1

end timestep


start timestep kper="1" kstp="228" mode="normal"


 FMI READING BUDGET TERMS FOR KSTP 228 KPER 1
    114.000        FLOW-JA-FACE                 
    114.000          DATA-SPDIS NPF             
    114.000            DATA-SAT NPF             
    114.000                 WEL WEL-1           
    114.000                 CHD CHD_0           

 FMI READING HEAD FOR KSTP 228 KPER 1

 CONCENTRATION WILL BE SAVED ON UNIT 1019 AT END OF TIME STEP  228, STRESS PERIOD    1

end timestep


start timestep kper="1" kstp="229" mode="normal"


 FMI READING BUDGET TERMS FOR KSTP 229 KPER 1
    114.500        FLOW-JA-FACE                 
    114.500          DATA-SPDIS NPF             
    114.500            DATA-SAT NPF             
    114.500                 WEL WEL-1           
    114.500                 CHD CHD_0           

 FMI READING HEAD FOR KSTP 229 KPER 1

 CONCENTRATION WILL BE SAVED ON UNIT 1019 AT END OF TIME STEP  229, STRESS PERIOD    1

end timestep


start timestep kper="1" kstp="230" mode="normal"


 FMI READING BUDGET TERMS FOR KSTP 230 KPER 1
    115.000        FLOW-JA-FACE                 
    115.000          DATA-SPDIS NPF             
    115.000            DATA-SAT NPF             
    115.000                 WEL WEL-1           
    115.000                 CHD CHD_0           

 FMI READING HEAD FOR KSTP 230 KPER 1

 CONCENTRATION WILL BE SAVED ON UNIT 1019 AT END OF TIME STEP  230, STRESS PERIOD    1

end timestep


start timestep kper="1" kstp="231" mode="normal"


 FMI READING BUDGET TERMS FOR KSTP 231 KPER 1
    115.500        FLOW-JA-FACE                 
    115.500          DATA-SPDIS NPF             
    115.500            DATA-SAT NPF             
    115.500                 WEL WEL-1           
    115.500                 CHD CHD_0           

 FMI READING HEAD FOR KSTP 231 KPER 1

 CONCENTRATION WILL BE SAVED ON UNIT 1019 AT END OF TIME STEP  231, STRESS PERIOD    1

end timestep


start timestep kper="1" kstp="232" mode="normal"


 FMI READING BUDGET TERMS FOR KSTP 232 KPER 1
    116.000        FLOW-JA-FACE                 
    116.000          DATA-SPDIS NPF             
    116.000            DATA-SAT NPF             
    116.000                 WEL WEL-1           
    116.000                 CHD CHD_0           

 FMI READING HEAD FOR KSTP 232 KPER 1

 CONCENTRATION WILL BE SAVED ON UNIT 1019 AT END OF TIME STEP  232, STRESS PERIOD    1

end timestep


start timestep kper="1" kstp="233" mode="normal"


 FMI READING BUDGET TERMS FOR KSTP 233 KPER 1
    116.500        FLOW-JA-FACE                 
    116.500          DATA-SPDIS NPF             
    116.500            DATA-SAT NPF             
    116.500                 WEL WEL-1           
    116.500                 CHD CHD_0           

 FMI READING HEAD FOR KSTP 233 KPER 1

 CONCENTRATION WILL BE SAVED ON UNIT 1019 AT END OF TIME STEP  233, STRESS PERIOD    1

end timestep


start timestep kper="1" kstp="234" mode="normal"


 FMI READING BUDGET TERMS FOR KSTP 234 KPER 1
    117.000        FLOW-JA-FACE                 
    117.000          DATA-SPDIS NPF             
    117.000            DATA-SAT NPF             
    117.000                 WEL WEL-1           
    117.000                 CHD CHD_0           

 FMI READING HEAD FOR KSTP 234 KPER 1

 CONCENTRATION WILL BE SAVED ON UNIT 1019 AT END OF TIME STEP  234, STRESS PERIOD    1

end timestep


start timestep kper="1" kstp="235" mode="normal"


 FMI READING BUDGET TERMS FOR KSTP 235 KPER 1
    117.500        FLOW-JA-FACE                 
    117.500          DATA-SPDIS NPF             
    117.500            DATA-SAT NPF             
    117.500                 WEL WEL-1           
    117.500                 CHD CHD_0           

 FMI READING HEAD FOR KSTP 235 KPER 1

 CONCENTRATION WILL BE SAVED ON UNIT 1019 AT END OF TIME STEP  235, STRESS PERIOD    1

end timestep


start timestep kper="1" kstp="236" mode="normal"


 FMI READING BUDGET TERMS FOR KSTP 236 KPER 1
    118.000        FLOW-JA-FACE                 
    118.000          DATA-SPDIS NPF             
    118.000            DATA-SAT NPF             
    118.000                 WEL WEL-1           
    118.000                 CHD CHD_0           

 FMI READING HEAD FOR KSTP 236 KPER 1

 CONCENTRATION WILL BE SAVED ON UNIT 1019 AT END OF TIME STEP  236, STRESS PERIOD    1

end timestep


start timestep kper="1" kstp="237" mode="normal"


 FMI READING BUDGET TERMS FOR KSTP 237 KPER 1
    118.500        FLOW-JA-FACE                 
    118.500          DATA-SPDIS NPF             
    118.500            DATA-SAT NPF             
    118.500                 WEL WEL-1           
    118.500                 CHD CHD_0           

 FMI READING HEAD FOR KSTP 237 KPER 1

 CONCENTRATION WILL BE SAVED ON UNIT 1019 AT END OF TIME STEP  237, STRESS PERIOD    1

end timestep


start timestep kper="1" kstp="238" mode="normal"


 FMI READING BUDGET TERMS FOR KSTP 238 KPER 1
    119.000        FLOW-JA-FACE                 
    119.000          DATA-SPDIS NPF             
    119.000            DATA-SAT NPF             
    119.000                 WEL WEL-1           
    119.000                 CHD CHD_0           

 FMI READING HEAD FOR KSTP 238 KPER 1

 CONCENTRATION WILL BE SAVED ON UNIT 1019 AT END OF TIME STEP  238, STRESS PERIOD    1

end timestep


start timestep kper="1" kstp="239" mode="normal"


 FMI READING BUDGET TERMS FOR KSTP 239 KPER 1
    119.500        FLOW-JA-FACE                 
    119.500          DATA-SPDIS NPF             
    119.500            DATA-SAT NPF             
    119.500                 WEL WEL-1           
    119.500                 CHD CHD_0           

 FMI READING HEAD FOR KSTP 239 KPER 1

 CONCENTRATION WILL BE SAVED ON UNIT 1019 AT END OF TIME STEP  239, STRESS PERIOD    1

end timestep


start timestep kper="1" kstp="240" mode="normal"


 FMI READING BUDGET TERMS FOR KSTP 240 KPER 1
    120.000        FLOW-JA-FACE                 
    120.000          DATA-SPDIS NPF             
    120.000            DATA-SAT NPF             
    120.000                 WEL WEL-1           
    120.000                 CHD CHD_0           

 FMI READING HEAD FOR KSTP 240 KPER 1
 UBDSV1 SAVING  STORAGE-AQUEOUS ON UNIT   1018 AT TIME STEP    240, STRESS PERIOD      1
 UBDSV1 SAVING    DECAY-AQUEOUS ON UNIT   1018 AT TIME STEP    240, STRESS PERIOD      1
 UBDSV1 SAVING     FLOW-JA-FACE ON UNIT   1018 AT TIME STEP    240, STRESS PERIOD      1
 UBDSV06 SAVING  SOURCE-SINK MIX IN MODEL TRANSPORT        PACKAGE TRANSPORT       CONNECTED TO MODEL TRANSPORT        PACKAGE SSM              ON UNIT   1018 AT TIME STEP    240, STRESS PERIOD      1
1
  CONCENTRATION IN LAYER   1 AT END OF TIME STEP 240 IN STRESS PERIOD    1
  ---------------------------------------------------------------------------

 ........................................................................................................................................................................................................................................................................................................................................................................................................................................................................................................................................................................................................................................................................................................................................................................................................................................................................................................................................................................................................................................
   1   0.9108      0.9028      0.8945      0.8862      0.8780      0.8699      0.8619      0.8539      0.8460      0.8381    
       0.8304      0.8226      0.8150      0.8074      0.7998      0.7924      0.7849      0.7776      0.7703      0.7630    
       0.7558      0.7487      0.7416      0.7345      0.7275      0.7206      0.7137      0.7068      0.7000      0.6933    
       0.6866      0.6799      0.6733      0.6667      0.6602      0.6537      0.6472      0.6408      0.6344      0.6281    
       0.6218      0.6155      0.6093      0.6031      0.5969      0.5908      0.5847      0.5786      0.5726      0.5666    
       0.5606      0.5546      0.5487      0.5428      0.5370      0.5311      0.5253      0.5195      0.5137      0.5080    
       0.5023      0.4966      0.4909      0.4853      0.4796      0.4740      0.4685      0.4629      0.4574      0.4518    
       0.4464      0.4409      0.4354      0.4300      0.4246      0.4192      0.4139      0.4085      0.4032      0.3979    
       0.3927      0.3874      0.3822      0.3770      0.3719      0.3667      0.3617      0.3566      0.3516      0.3466    
       0.3416      0.3367      0.3318      0.3270      0.3222      0.3175      0.3128      0.3082      0.3037      0.2992    
       0.2948      0.2905      0.2862      0.2821      0.2781      0.2741      0.2703      0.2667      0.2632      0.2598    
       0.2567      0.2537      0.2510      0.2484      0.2462      0.2442      0.2426      0.2413      0.2404      0.2399    

 CONCENTRATION WILL BE SAVED ON UNIT 1019 AT END OF TIME STEP  240, STRESS PERIOD    1


  MASS BUDGET FOR ENTIRE MODEL AT END OF TIME STEP  240, STRESS PERIOD   1
  ---------------------------------------------------------------------------------------------------

     CUMULATIVE MASS      M       RATES FOR THIS TIME STEP      M/T          PACKAGE NAME    
     ------------------                 ------------------------                     ----------------

           IN:                                      IN:
           ---                                      ---
     STORAGE-AQUEOUS =           0.0000       STORAGE-AQUEOUS =           0.0000     MST                              
       DECAY-AQUEOUS =           0.0000         DECAY-AQUEOUS =           0.0000     MST                              
                 WEL =           0.1200                   WEL =       1.0000E-03     SSM_WEL-1                        
                 CHD =           0.0000                   CHD =           0.0000     SSM_CHD_0                        

            TOTAL IN =           0.1200              TOTAL IN =       1.0000E-03

          OUT:                                     OUT:
          ----                                     ----
     STORAGE-AQUEOUS =       6.2915E-02       STORAGE-AQUEOUS =       1.3097E-04     MST                              
       DECAY-AQUEOUS =       4.8487E-02         DECAY-AQUEOUS =       6.2915E-04     MST                              
                 WEL =           0.0000                   WEL =           0.0000     SSM_WEL-1                        
                 CHD =       8.5988E-03                   CHD =       2.3989E-04     SSM_CHD_0                        

           TOTAL OUT =           0.1200             TOTAL OUT =       1.0000E-03

            IN - OUT =       4.5935E-15              IN - OUT =       1.3726E-16

 PERCENT DISCREPANCY =           0.00     PERCENT DISCREPANCY =           0.00




         TIME SUMMARY AT END OF TIME STEP  240 IN STRESS PERIOD    1
                    SECONDS     MINUTES      HOURS       DAYS        YEARS
                    -----------------------------------------------------------
   TIME STEP LENGTH 0.50000     8.33333E-03 1.38889E-04 5.78704E-06 1.58440E-08
 STRESS PERIOD TIME  120.00      2.0000     3.33333E-02 1.38889E-03 3.80257E-06
         TOTAL TIME  120.00      2.0000     3.33333E-02 1.38889E-03 3.80257E-06


end timestep

