                                   MODFLOW 6
                U.S. GEOLOGICAL SURVEY MODULAR HYDROLOGIC MODEL
                          GROUNDWATER FLOW MODEL (GWF)
                            VERSION 6.1.1 06/12/2020

  MODFLOW 6 compiled Aug 24 2020 11:15:34 with GFORTRAN compiler (ver. 7.5.0)

This software has been approved for release by the U.S. Geological 
Survey (USGS). Although the software has been subjected to rigorous 
review, the USGS reserves the right to update the software as needed 
pursuant to further analysis and review. No warranty, expressed or 
implied, is made by the USGS or the U.S. Government as to the 
functionality of the software and related material nor shall the 
fact of release constitute any such warranty. Furthermore, the 
software is released on condition that neither the USGS nor the U.S. 
Government shall be held liable for any damages resulting from its 
authorized or unauthorized use. Also refer to the USGS Water 
Resources Software User Rights Notice for complete use, copyright, 
and distribution information.


MODFLOW was compiled using uniform precision.
Precision of REAL variables: 15


 OPENED twri.dis
 FILE TYPE:DIS6                   UNIT 1005   STATUS:OLD                 
 FORMAT:FORMATTED              ACCESS:SEQUENTIAL          
 ACTION:READ                


 OPENED twri.ic
 FILE TYPE:IC6                    UNIT 1006   STATUS:OLD                 
 FORMAT:FORMATTED              ACCESS:SEQUENTIAL          
 ACTION:READ                


 OPENED twri.chd
 FILE TYPE:CHD6                   UNIT 1007   STATUS:OLD                 
 FORMAT:FORMATTED              ACCESS:SEQUENTIAL          
 ACTION:READ                


 OPENED twri.npf
 FILE TYPE:NPF6                   UNIT 1008   STATUS:OLD                 
 FORMAT:FORMATTED              ACCESS:SEQUENTIAL          
 ACTION:READ                


 OPENED twri.wel
 FILE TYPE:WEL6                   UNIT 1009   STATUS:OLD                 
 FORMAT:FORMATTED              ACCESS:SEQUENTIAL          
 ACTION:READ                


 OPENED twri.drn
 FILE TYPE:DRN6                   UNIT 1010   STATUS:OLD                 
 FORMAT:FORMATTED              ACCESS:SEQUENTIAL          
 ACTION:READ                


 OPENED twri.rch
 FILE TYPE:RCH6                   UNIT 1011   STATUS:OLD                 
 FORMAT:FORMATTED              ACCESS:SEQUENTIAL          
 ACTION:READ                


 OPENED twri.oc
 FILE TYPE:OC6                    UNIT 1012   STATUS:OLD                 
 FORMAT:FORMATTED              ACCESS:SEQUENTIAL          
 ACTION:READ                


 DIS -- STRUCTURED GRID DISCRETIZATION PACKAGE, VERSION 2 : 3/27/2014 - INPUT READ FROM UNIT 1005


 PROCESSING DISCRETIZATION OPTIONS
 END OF DISCRETIZATION OPTIONS
 MODEL LENGTH UNIT IS UNDEFINED
 PROCESSING DISCRETIZATION DIMENSIONS
    NLAY =       3
    NROW =      15
    NCOL =      15
 END OF DISCRETIZATION DIMENSIONS
 PROCESSING GRIDDATA

                     DELR =   5000.000    

                     DELC =   5000.000    

 TOP ELEVATION OF LAYER 1 =   200.0000    

   MODEL LAYER BOTTOM EL. =  -200.0000     FOR LAYER 1

   MODEL LAYER BOTTOM EL. =  -300.0000     FOR LAYER 2

   MODEL LAYER BOTTOM EL. =  -450.0000     FOR LAYER 3
 END PROCESSING GRIDDATA

 NPF -- NODE PROPERTY FLOW PACKAGE, VERSION 1, 3/30/2015 INPUT READ FROM UNIT 1008


 PROCESSING NPF OPTIONS
    CELL-BY-CELL FLOW INFORMATION WILL BE SAVED TO BINARY FILE WHENEVER ICBCFL IS NOT ZERO.
    VERTICAL CONDUCTANCE VARIES WITH WATER TABLE.
    VERTICAL CONDUCTANCE ACCOUNTS FOR DEWATERED PORTION OF AN UNDERLYING CELL.
    VERTICAL FLOW WILL BE ADJUSTED FOR PERCHED CONDITIONS.
 END OF NPF OPTIONS

 WEL   -- WEL PACKAGE, VERSION 8, 2/22/2014 INPUT READ FROM UNIT 1009

 PROCESSING WEL OPTIONS
    LISTS OF WEL CELLS WILL BE PRINTED.
    WEL FLOWS WILL BE PRINTED TO LISTING FILE.
    FLOWS WILL BE SAVED TO BUDGET FILE SPECIFIED IN OUTPUT CONTROL
 END OF WEL OPTIONS

 PROCESSING WEL DIMENSIONS
    MAXBOUND =      15
 END OF WEL DIMENSIONS

 DRN   -- DRN PACKAGE, VERSION 8, 2/22/2014 INPUT READ FROM UNIT 1010

 PROCESSING DRN OPTIONS
    LISTS OF DRN CELLS WILL BE PRINTED.
    DRN FLOWS WILL BE PRINTED TO LISTING FILE.
    FLOWS WILL BE SAVED TO BUDGET FILE SPECIFIED IN OUTPUT CONTROL
 END OF DRN OPTIONS

 PROCESSING DRN DIMENSIONS
    MAXBOUND =       9
 END OF DRN DIMENSIONS

 RCH   -- RCH PACKAGE, VERSION 8, 2/22/2014 INPUT READ FROM UNIT 1011

 PROCESSING RCH OPTIONS
    RECHARGE INPUT WILL BE READ AS ARRAY(S).
    RECHARGE WILL BE APPLIED TO SPECIFIED CELL.
 END OF RCH OPTIONS

 CHD   -- CHD PACKAGE, VERSION 8, 2/22/2014 INPUT READ FROM UNIT 1007
 #The OPTIONS block is optional

 PROCESSING CHD OPTIONS
    LISTS OF CHD CELLS WILL BE PRINTED.
    CHD FLOWS WILL BE PRINTED TO LISTING FILE.
    FLOWS WILL BE SAVED TO BUDGET FILE SPECIFIED IN OUTPUT CONTROL
 END OF CHD OPTIONS
 #The DIMENSIONS block is required

 PROCESSING CHD DIMENSIONS
    MAXBOUND =     100
 END OF CHD DIMENSIONS

 IC -- INITIAL CONDITIONS PACKAGE, VERSION 8, 3/28/2015 INPUT READ FROM UNIT 1006
 PROCESSING IC OPTIONS
 END OF IC OPTIONS
 PROCESSING GRIDDATA

     INITIAL HEAD =   0.000000    
 END PROCESSING GRIDDATA
 PROCESSING GRIDDATA

                ICELLTYPE = 1 FOR LAYER 1

                ICELLTYPE = 0 FOR LAYER 2

                ICELLTYPE = 0 FOR LAYER 3

                        K =  0.1000000E-02 FOR LAYER 1

                        K =  0.1000000E-03 FOR LAYER 2

                        K =  0.2000000E-03 FOR LAYER 3

                      K33 =  0.2000000E-07 FOR LAYER 1

                      K33 =  0.2000000E-07 FOR LAYER 2

                      K33 =  0.2000000E-07 FOR LAYER 3
 K22 not provided.  Assuming K22 = K.
 END PROCESSING GRIDDATA
    BINARY GRID INFORMATION WILL BE WRITTEN TO:
      UNIT NUMBER: 1014
      FILE NAME: twri.dis.grb

 OPENED twri.dis.grb
 FILE TYPE:DATA(BINARY)   UNIT 1014   STATUS:REPLACE             
 FORMAT:UNFORMATTED            ACCESS:STREAM              
 ACTION:READWRITE           

      THE LAST TIME STEP WILL BE PRINTED
      THE LAST TIME STEP WILL BE PRINTED

 PROCESSING OC OPTIONS

    BUDGET INFORMATION WILL BE WRITTEN TO:
      UNIT NUMBER: 1015
      FILE NAME: twri.cbb

 OPENED twri.cbb
 FILE TYPE:DATA(BINARY)   UNIT 1015   STATUS:REPLACE             
 FORMAT:UNFORMATTED            ACCESS:STREAM              
 ACTION:READWRITE           

    HEAD INFORMATION WILL BE WRITTEN TO:
      UNIT NUMBER: 1016
      FILE NAME: twri.hds

 OPENED twri.hds
 FILE TYPE:DATA(BINARY)   UNIT 1016   STATUS:REPLACE             
 FORMAT:UNFORMATTED            ACCESS:STREAM              
 ACTION:READWRITE           

 END OF OC OPTIONS

start timestep kper="1" kstp="1" mode="normal"


 BEGIN READING OUTPUT CONTROL FOR STRESS PERIOD 1
      ALL TIME STEPS WILL BE PRINTED
      ALL TIME STEPS WILL BE SAVED
      ALL TIME STEPS WILL BE SAVED

 END READING OUTPUT CONTROL FOR STRESS PERIOD 1
 ---------------------------------------------------
  WEL NO.    LAYER    ROW     COL     STRESS RATE   
 ---------------------------------------------------
     1         3       5      11    -5.00000000     
     2         2       4       6    -5.00000000     
     3         2       6      12    -5.00000000     
     4         1       9       8    -5.00000000     
     5         1       9      10    -5.00000000     
     6         1       9      12    -5.00000000     
     7         1       9      14    -5.00000000     
     8         1      11       8    -5.00000000     
     9         1      11      10    -5.00000000     
     10        1      11      12    -5.00000000     
     11        1      11      14    -5.00000000     
     12        1      13       8    -5.00000000     
     13        1      13      10    -5.00000000     
     14        1      13      12    -5.00000000     
     15        1      13      14    -5.00000000     
 ---------------------------------------------------


 --------------------------------------------------------------------
  DRN NO.    LAYER    ROW     COL      DRAIN EL.       CONDUCTANCE   
 --------------------------------------------------------------------
     1         1       8       2     0.00000000       1.00000000     
     2         1       8       3     0.00000000       1.00000000     
     3         1       8       4     10.0000000       1.00000000     
     4         1       8       5     20.0000000       1.00000000     
     5         1       8       6     30.0000000       1.00000000     
     6         1       8       7     50.0000000       1.00000000     
     7         1       8       8     70.0000000       1.00000000     
     8         1       8       9     90.0000000       1.00000000     
     9         1       8      10     100.000000       1.00000000     
 --------------------------------------------------------------------



                 RECHARGE =  0.3000000E-07
 #The following block of constant-head cells will be activated
 #for stress period 1.  This block will remain active throughout
 #the simulation.
 ---------------------------------------------------
  CHD NO.    LAYER    ROW     COL         HEAD      
 ---------------------------------------------------
     1         1       1       1     0.00000000     
     2         1       2       1     0.00000000     
     3         1       3       1     0.00000000     
     4         1       4       1     0.00000000     
     5         1       5       1     0.00000000     
     6         1       6       1     0.00000000     
     7         1       7       1     0.00000000     
     8         1       8       1     0.00000000     
     9         1       9       1     0.00000000     
     10        1      10       1     0.00000000     
     11        1      11       1     0.00000000     
     12        1      12       1     0.00000000     
     13        1      13       1     0.00000000     
     14        1      14       1     0.00000000     
     15        1      15       1     0.00000000     
     16        2       1       1     0.00000000     
     17        2       2       1     0.00000000     
     18        2       3       1     0.00000000     
     19        2       4       1     0.00000000     
     20        2       5       1     0.00000000     
     21        2       6       1     0.00000000     
     22        2       7       1     0.00000000     
     23        2       8       1     0.00000000     
     24        2       9       1     0.00000000     
     25        2      10       1     0.00000000     
     26        2      11       1     0.00000000     
     27        2      12       1     0.00000000     
     28        2      13       1     0.00000000     
     29        2      14       1     0.00000000     
     30        2      15       1     0.00000000     
 ---------------------------------------------------


 UBDSV1 SAVING     FLOW-JA-FACE ON UNIT   1015 AT TIME STEP      1, STRESS PERIOD      1
 UBDSV06 SAVING              WEL IN MODEL GWF_1            PACKAGE GWF_1           CONNECTED TO MODEL GWF_1            PACKAGE WEL-1            ON UNIT   1015 AT TIME STEP      1, STRESS PERIOD      1
 UBDSV06 SAVING              DRN IN MODEL GWF_1            PACKAGE GWF_1           CONNECTED TO MODEL GWF_1            PACKAGE DRN-1            ON UNIT   1015 AT TIME STEP      1, STRESS PERIOD      1
 UBDSV06 SAVING              CHD IN MODEL GWF_1            PACKAGE GWF_1           CONNECTED TO MODEL GWF_1            PACKAGE CHD-1            ON UNIT   1015 AT TIME STEP      1, STRESS PERIOD      1
1
  HEAD IN LAYER   1 AT END OF TIME STEP   1 IN STRESS PERIOD    1
  ---------------------------------------------------------------------------

            1           2           3           4           5           6           7           8           9          10
           11          12          13          14          15
 ........................................................................................................................
   1    0.000       22.28       39.89       54.22       66.16       76.31       85.05       92.55       98.91       104.2    
        108.6       112.0       114.6       116.3       117.2    
   2    0.000       21.90       39.20       53.29       65.06       75.11       83.85       91.38       97.76       103.1    
        107.4       110.9       113.4       115.2       116.0    
   3    0.000       21.10       37.78       51.40       62.83       72.66       81.45       89.05       95.47       100.8    
        105.1       108.6       111.2       112.9       113.8    
   4    0.000       19.82       35.52       48.47       59.43       68.96       77.90       85.61       92.07       97.37    
        101.7       105.1       107.7       109.6       110.5    
   5    0.000       17.90       32.19       44.29       54.91       64.48       73.36       81.11       87.59       92.85    
        97.04       100.4       103.1       105.1       106.1    
   6    0.000       15.01       27.24       38.24       48.49       58.22       67.46       75.45       82.02       87.23    
        91.33       94.50       97.45       99.51       100.6    
   7    0.000       10.56       19.58       29.34       39.29       49.41       59.97       68.56       75.37       80.48    
        84.66       87.85       90.76       92.77       94.09    
   8    0.000       3.481       6.936       16.13       26.01       36.48       51.28       60.58       67.78       72.18    
        76.72       79.43       82.76       84.43       86.55    
   9    0.000       9.510       17.46       26.02       34.46       42.47       49.66       51.55       60.13       60.92    
        68.01       67.77       73.89       73.00       78.64    
  10    0.000       13.03       23.31       32.15       39.75       45.96       50.38       52.57       57.32       59.54    
        63.86       65.56       69.32       70.55       73.75    
  11    0.000       15.13       26.78       35.99       43.15       48.18       50.46       48.11       54.21       53.22    
        59.56       58.56       64.59       63.43       69.43    
  12    0.000       16.43       28.93       38.49       45.54       50.18       52.28       52.25       55.28       56.26    
        59.76       60.88       64.28       65.26       68.39    
  13    0.000       17.23       30.30       40.15       47.28       51.81       53.39       50.40       55.55       53.92    
        59.54       58.12       63.64       62.19       67.81    
  14    0.000       17.71       31.14       41.24       48.59       53.49       56.21       57.30       59.68       60.97    
        63.49       64.79       67.18       68.21       70.12    
  15    0.000       17.94       31.54       41.79       49.30       54.50       57.83       60.00       62.11       63.89    
        65.88       67.57       69.34       70.62       71.68    
1
  HEAD IN LAYER   2 AT END OF TIME STEP   1 IN STRESS PERIOD    1
  ---------------------------------------------------------------------------

            1           2           3           4           5           6           7           8           9          10
           11          12          13          14          15
 ........................................................................................................................
   1    0.000       11.35       19.43       24.85       28.37       31.72       37.55       43.54       48.37       52.02    
        55.02       57.94       60.82       63.17       64.49    
   2    0.000       10.86       18.16       22.00       22.51       22.29       31.29       39.81       45.57       49.14    
        51.75       54.66       58.09       61.05       62.73    
   3    0.000       10.05       15.95       16.41       8.359      -8.408       16.43       32.63       40.43       43.41    
        44.58       47.11       52.15       56.77       59.33    
   4    0.000       9.302       13.95       10.54      -13.99      -111.0      -6.687       24.92       34.59       35.26    
        31.99       31.92       41.77       50.32       54.69    
   5    0.000       9.056       14.19       14.15       5.797      -11.32       12.74       27.26       31.40       26.48    
        12.07      -2.543       24.78       42.25       49.71    
   6    0.000       8.897       14.70       17.68       17.75       17.06       24.94       30.94       31.32       22.59    
       -6.647      -103.9       2.335       35.60       46.29    
   7    0.000       8.538       14.57       19.11       22.51       25.74       30.48       33.97       34.25       29.56    
        17.55     -0.7962       23.87       39.94       46.85    
   8    0.000       8.211       14.21       19.48       24.14       28.52       32.93       36.03       37.30       36.16    
        33.04       30.46       37.93       44.90       48.65    
   9    0.000       9.319       16.15       21.86       26.83       31.20       34.92       37.54       39.51       40.15    
        40.51       41.20       44.66       47.95       50.17    
  10    0.000       10.53       18.19       24.31       29.37       33.54       36.84       39.29       41.41       42.87    
        44.32       45.79       48.03       50.00       51.41    
  11    0.000       11.53       19.86       26.33       31.46       35.49       38.48       40.62       42.84       44.48    
        46.34       47.86       49.77       51.14       52.32    
  12    0.000       12.28       21.13       27.88       33.13       37.14       40.08       42.27       44.41       46.18    
        48.04       49.60       51.23       52.42       53.34    
  13    0.000       12.81       22.03       29.02       34.40       38.47       41.43       43.55       45.78       47.50    
        49.42       50.86       52.44       53.42       54.33    
  14    0.000       13.16       22.62       29.78       35.29       39.50       42.66       45.09       47.28       49.14    
        50.93       52.43       53.80       54.77       55.44    
  15    0.000       13.33       22.91       30.17       35.76       40.07       43.36       45.96       48.18       50.10    
        51.84       53.35       54.63       55.58       56.13    
1
  HEAD IN LAYER   3 AT END OF TIME STEP   1 IN STRESS PERIOD    1
  ---------------------------------------------------------------------------

            1           2           3           4           5           6           7           8           9          10
           11          12          13          14          15
 ........................................................................................................................
   1    10.70       12.26       14.22       16.01       17.62       19.47       21.95       24.52       26.69       28.53    
        30.60       33.42       36.54       39.17       40.65    
   2    10.56       12.00       13.68       15.01       15.96       17.20       19.78       22.37       24.13       25.17    
        26.60       29.85       33.79       37.11       38.96    
   3    10.38       11.63       12.91       13.46       13.12       12.92       16.06       18.74       19.42       18.24    
        17.42       22.29       28.42       33.32       35.95    
   4    10.34       11.46       12.46       12.42       10.77       8.136       12.74       15.27       13.78       7.585    
       -1.082       10.18       21.12       28.67       32.44    
   5    10.55       11.70       12.85       13.26       12.68       12.00       14.10       14.53       10.06      -4.286    
       -43.92      -4.517       14.45       24.93       29.74    
   6    11.01       12.29       13.80       14.96       15.63       16.20       17.30       17.00       13.38       5.026    
       -6.595      0.9613       14.89       24.53       29.20    
   7    11.67       13.09       14.97       16.80       18.39       19.75       20.88       20.91       19.05       15.26    
        11.56       14.05       21.29       27.63       31.05    
   8    12.47       14.04       16.25       18.59       20.80       22.75       24.27       24.98       24.64       23.49    
        22.73       24.36       28.23       32.01       34.21    
   9    13.36       15.13       17.65       20.39       23.04       25.40       27.33       28.64       29.33       29.63    
        30.15       31.61       33.97       36.27       37.65    
  10    14.27       16.23       19.04       22.10       25.06       27.73       29.97       31.73       33.07       34.14    
        35.25       36.67       38.36       39.88       40.79    
  11    15.11       17.24       20.29       23.60       26.80       29.70       32.18       34.24       35.97       37.44    
        38.84       40.24       41.63       42.76       43.42    
  12    15.84       18.11       21.34       24.85       28.24       31.30       33.97       36.24       38.19       39.89    
        41.42       42.82       44.05       45.00       45.53    
  13    16.41       18.78       22.15       25.80       29.33       32.54       35.34       37.75       39.84       41.66    
        43.26       44.65       45.82       46.66       47.13    
  14    16.80       19.23       22.70       26.45       30.08       33.38       36.28       38.79       40.97       42.86    
        44.50       45.89       47.01       47.81       48.23    
  15    17.00       19.46       22.98       26.78       30.46       33.82       36.77       39.33       41.56       43.48    
        45.13       46.51       47.62       48.40       48.80    

 HEAD WILL BE SAVED ON UNIT 1016 AT END OF TIME STEP    1, STRESS PERIOD    1


  VOLUME BUDGET FOR ENTIRE MODEL AT END OF TIME STEP    1, STRESS PERIOD   1
  ---------------------------------------------------------------------------------------------------

     CUMULATIVE VOLUME      L**3       RATES FOR THIS TIME STEP      L**3/T          PACKAGE NAME    
     ------------------                 ------------------------                     ----------------

           IN:                                      IN:
           ---                                      ---
                 WEL =           0.0000                   WEL =           0.0000     WEL-1           
                 DRN =           0.0000                   DRN =           0.0000     DRN-1           
                 RCH =    13608000.0000                   RCH =         157.5000     RCH-1           
                 CHD =           0.0000                   CHD =           0.0000     CHD-1           

            TOTAL IN =    13608000.0000              TOTAL IN =         157.5000

          OUT:                                     OUT:
          ----                                     ----
                 WEL =     6480000.0000                   WEL =          75.0000     WEL-1           
                 DRN =     2619937.8795                   DRN =          30.3234     DRN-1           
                 RCH =           0.0000                   RCH =           0.0000     RCH-1           
                 CHD =     4508065.0314                   CHD =          52.1767     CHD-1           

           TOTAL OUT =    13608002.9108             TOTAL OUT =         157.5000

            IN - OUT =          -2.9108              IN - OUT =      -3.3690E-05

 PERCENT DISCREPANCY =          -0.00     PERCENT DISCREPANCY =          -0.00




         TIME SUMMARY AT END OF TIME STEP    1 IN STRESS PERIOD    1
                    SECONDS     MINUTES      HOURS       DAYS        YEARS
                    -----------------------------------------------------------
   TIME STEP LENGTH  86400.      1440.0      24.000      1.0000     2.73785E-03
 STRESS PERIOD TIME  86400.      1440.0      24.000      1.0000     2.73785E-03
         TOTAL TIME  86400.      1440.0      24.000      1.0000     2.73785E-03


end timestep

