                                   MODFLOW 6
                U.S. GEOLOGICAL SURVEY MODULAR HYDROLOGIC MODEL
                            VERSION 6.6.0 12/20/2024

   MODFLOW 6 compiled Dec 31 2024 17:10:16 with Intel(R) Fortran Intel(R) 64
   Compiler Classic for applications running on Intel(R) 64, Version 2021.7.0
                             Build 20220726_000000

This software has been approved for release by the U.S. Geological 
Survey (USGS). Although the software has been subjected to rigorous 
review, the USGS reserves the right to update the software as needed 
pursuant to further analysis and review. No warranty, expressed or 
implied, is made by the USGS or the U.S. Government as to the 
functionality of the software and related material nor shall the 
fact of release constitute any such warranty. Furthermore, the 
software is released on condition that neither the USGS nor the U.S. 
Government shall be held liable for any damages resulting from its 
authorized or unauthorized use. Also refer to the USGS Water 
Resources Software User Rights Notice for complete use, copyright, 
and distribution information.


As a work of the United States Government, this USGS product is 
in the public domain within the United States. You can copy, 
modify, distribute, and perform the work, even for commercial 
purposes, all without asking permission. Additionally, USGS 
waives copyright and related rights in the work worldwide 
through CC0 1.0 Universal Public Domain Dedication 
(https://creativecommons.org/publicdomain/zero/1.0/).

The following GNU Lesser General Public License (LGPL) libraries
are used in this USGS product:

    SPARSKIT version 2.0
      ilut, luson, and qsplit 
      (https://www-users.cse.umn.edu/~saad/software/SPARSKIT/)

    RCM - Reverse Cuthill McKee Ordering
      (https://people.math.sc.edu/Burkardt/f_src/rcm/rcm.html)

    BLAS - Basic Linear Algebra Subprograms Level 1
      (https://people.math.sc.edu/Burkardt/f_src/blas1_d/blas1_d.html)

    SPARSEKIT - Sparse Matrix Utility Package
      amux, dperm, dvperm, rperm, and cperm
      (https://people.sc.fsu.edu/~jburkardt/f77_src/sparsekit/sparsekit.html)

The following BSD-3 License libraries are used in this USGS product:

    Modern Fortran DAG Library
      Copyright (c) 2018, Jacob Williams
      All rights reserved.
      (https://github.com/jacobwilliams/daglib)

MODFLOW 6 compiler options: /O2 /heap-arrays:0 /fpe:0 /traceback /nologo /fpp
/c /module:win64\mod_mf6\ /object:win64\obj_mf6\

System command used to initiate simulation:
C:\Users\luiggi\Documents\GitSites\MODFLOW_API\emsdatasets\bin\mf6.exe

MODFLOW was compiled using uniform precision.

Real Variables
  KIND: 8
  TINY (smallest non-zero value):    2.225074-308
  HUGE (largest value):    1.797693+308
  PRECISION: 15
  SIZE IN BITS: 64

Integer Variables
  KIND: 4
  HUGE (largest value): 2147483647
  SIZE IN BITS: 32

Long Integer Variables
  KIND: 8
  HUGE (largest value): 9223372036854775807
  SIZE IN BITS: 64

Logical Variables
  KIND: 4
  SIZE IN BITS: 32
 

 OPENED mfsim.nam
 FILE TYPE:NAM6               UNIT 1001   STATUS:OLD                 
 FORMAT:FORMATTED              ACCESS:SEQUENTIAL          
 ACTION:READ                

 # File generated by Flopy version 3.3.3 on 02/05/2021 at 13:07:20.

 OPENED ex-gwf-sagehen-gsf.tdis
 FILE TYPE:TDIS6              UNIT 1002   STATUS:OLD                 
 FORMAT:FORMATTED              ACCESS:SEQUENTIAL          
 ACTION:READ                

 # File generated by Flopy version 3.3.3 on 02/05/2021 at 13:07:20.
 # Originally run for 5844.0 days and 5844 time steps

 OPENED gwf_sagehen-gsf.nam
 FILE TYPE:GWF6               UNIT 1003   STATUS:OLD                 
 FORMAT:FORMATTED              ACCESS:SEQUENTIAL          
 ACTION:READ                

 # File generated by Flopy version 3.3.3 on 02/05/2021 at 13:07:20.

 OPENED ../common/gwf_sagehen-gsf.dis
 FILE TYPE:DIS6               UNIT 1004   STATUS:OLD                 
 FORMAT:FORMATTED              ACCESS:SEQUENTIAL          
 ACTION:READ                

 # File generated by Flopy version 3.3.3 on 02/05/2021 at 13:07:20.

 OPENED ../common/gwf_sagehen-gsf.npf
 FILE TYPE:NPF6               UNIT 1005   STATUS:OLD                 
 FORMAT:FORMATTED              ACCESS:SEQUENTIAL          
 ACTION:READ                

 # File generated by Flopy version 3.3.3 on 02/05/2021 at 13:07:20.

 OPENED gwf_sagehen-gsf.sto
 FILE TYPE:STO6               UNIT 1006   STATUS:OLD                 
 FORMAT:FORMATTED              ACCESS:SEQUENTIAL          
 ACTION:READ                

 # File generated by Flopy version 3.3.3 on 02/05/2021 at 13:07:20.

 OPENED gwf_sagehen-gsf.ic
 FILE TYPE:IC6                UNIT 1009   STATUS:OLD                 
 FORMAT:FORMATTED              ACCESS:SEQUENTIAL          
 ACTION:READ                

 # File generated by Flopy version 3.3.3 on 02/05/2021 at 13:07:20.

 OPENED ../common/gwf_sagehen-gsf.mvr
 FILE TYPE:MVR6      UNIT 1010   STATUS:OLD                 
 FORMAT:FORMATTED              ACCESS:SEQUENTIAL          
 ACTION:READ                


 OPENED gwf_sagehen-gsf.oc
 FILE TYPE:OC6       UNIT 1011   STATUS:OLD                 
 FORMAT:FORMATTED              ACCESS:SEQUENTIAL          
 ACTION:READ                


 OPENED ../common/gwf_sagehen-gsf.drn
 FILE TYPE:DRN6               UNIT 1012   STATUS:OLD                 
 FORMAT:FORMATTED              ACCESS:SEQUENTIAL          
 ACTION:READ                

 # File generated by Flopy version 3.3.3 on 04/05/2021 at 10:12:30.
    AUXILIARY  VARIABLE: DDRN            

 OPENED ../common/gwf_sagehen-gsf.chd
 FILE TYPE:CHD6               UNIT 1013   STATUS:OLD                 
 FORMAT:FORMATTED              ACCESS:SEQUENTIAL          
 ACTION:READ                

 # File generated by Flopy version 3.3.3 on 02/05/2021 at 13:07:20.

 OPENED ../common/gwf_sagehen-gsf.sfr
 FILE TYPE:SFR6      UNIT 1014   STATUS:OLD                 
 FORMAT:FORMATTED              ACCESS:SEQUENTIAL          
 ACTION:READ                


 OPENED gwf_sagehen-gsf.uzf
 FILE TYPE:UZF6      UNIT 1015   STATUS:OLD                 
 FORMAT:FORMATTED              ACCESS:SEQUENTIAL          
 ACTION:READ                

    ALL SIMULATION MEMORY INFORMATION WILL BE WRITTEN.

 READING SIMULATION OPTIONS
    SIMULATION WILL CONTINUE EVEN IF THERE IS NONCONVERGENCE.
    MAXIMUM NUMBER OF ERRORS THAT WILL BE STORED IS 1000
    MEMORY_PRINT_OPTION SET TO "ALL".
 END OF SIMULATION OPTIONS

 READING SIMULATION TIMING

 TDIS -- TEMPORAL DISCRETIZATION PACKAGE,
 VERSION 1 : 11/13/2014 - INPUT READ FROM MEMPATH: __INPUT__/SIM/TDIS                                
 PROCESSING TDIS OPTIONS
    SIMULATION TIME UNIT IS DAYS
 END OF TDIS OPTIONS
 PROCESSING TDIS DIMENSIONS
    1 STRESS PERIOD(S) IN SIMULATION
 END OF TDIS DIMENSIONS
 PROCESSING TDIS PERIODDATA


 STRESS PERIOD     LENGTH       TIME STEPS     MULTIPLIER FOR DELT
 ----------------------------------------------------------------------------
        1         1.000000          1                    1.000
 END OF TDIS PERIODDATA
 END OF SIMULATION TIMING

 READING SIMULATION MODELS
    GWF6 model 1 will be created
 END OF SIMULATION MODELS

 READING SIMULATION EXCHANGES
 END OF SIMULATION EXCHANGES

 READING SOLUTIONGROUP

 Creating solution: SLN_1           

 OPENED ../common/gwf_sagehen-gsf_steady.ims
 FILE TYPE:IMS   UNIT 1017   STATUS:OLD                 
 FORMAT:FORMATTED              ACCESS:SEQUENTIAL          
 ACTION:READ                

 END OF SOLUTIONGROUP

PROCESSING MODEL CONNECTIONS

 OPENED ../common/steady.txt
 FILE TYPE:OPEN/CLOSE   UNIT 1024   STATUS:OLD                 
 FORMAT:FORMATTED              ACCESS:SEQUENTIAL          
 ACTION:READ                


 OPENED ../common/drn_stressperioddata.txt
 FILE TYPE:OPEN/CLOSE   UNIT 1025   STATUS:OLD                 
 FORMAT:FORMATTED              ACCESS:SEQUENTIAL          
 ACTION:READ                


 IMS -- ITERATIVE MODEL SOLUTION PACKAGE, VERSION 6, 4/28/2017
         INPUT READ FROM UNIT 1017
 # File generated by Flopy version 3.3.3 on 02/05/2021 at 13:07:20.

 PROCESSING IMS OPTIONS
 COMPLEX OPTION:
 DEFAULT SOLVER INPUT VALUES REFLECT STRONGLY NONLINEAR MODEL
 END OF IMS OPTIONS

 PROCESSING IMS NONLINEAR
 END OF IMS NONLINEAR DATA
 **UNDER-RELAXATION WILL BE USED***
 

 PROCESSING LINEAR DATA
 END OF LINEAR DATA
 ***IMS LINEAR SOLVER WILL BE USED***

 IMSLINEAR -- UNSTRUCTURED LINEAR SOLUTION PACKAGE, VERSION 8, 04/28/2017
 An asymmetric matrix will be solved

 OUTER ITERATION CONVERGENCE CRITERION    (DVCLOSE) =    0.100000E-03
 MAXIMUM NUMBER OF OUTER ITERATIONS        (MXITER) = 300
 SOLVER PRINTOUT INDEX                     (IPRIMS) = 1
 NONLINEAR ITERATION METHOD            (NONLINMETH) = 1
 LINEAR SOLUTION METHOD                   (LINMETH) = 1
 UNDER-RELAXATION FACTOR                    (GAMMA) =    0.900000E+00
 MAXIMUM NUMBER OF BACKTRACKS            (NUMTRACK) = 20
 BACKTRACKING TOLERANCE FACTOR               (BTOL) =    0.105000E+01
 BACKTRACKING REDUCTION FACTOR             (BREDUC) =    0.100000E+00
 BACKTRACKING RESIDUAL LIMIT              (RES_LIM) =    0.200000E-02

       SOLUTION BY THE BICONJUGATE-GRADIENT STABILIZED METHOD
 ------------------------------------------------------------------
 MAXIMUM OF 300 CALLS OF SOLUTION ROUTINE
 MAXIMUM OF 500 INTERNAL ITERATIONS PER CALL TO SOLUTION ROUTINE
 LINEAR ACCELERATION METHOD            = BCGS      
 MATRIX PRECONDITIONING TYPE           = MOD. INCOMPLETE LUT 
 MATRIX SCALING APPROACH               = NO SCALING          
 MATRIX REORDERING APPROACH            = ORIGINAL ORDERING        
 NUMBER OF ORTHOGONALIZATIONS          = 2
 HEAD CHANGE CRITERION FOR CLOSURE     =    0.10000E-04
 RESIDUAL CHANGE CRITERION FOR CLOSURE =    0.10000E-01
 RESIDUAL CONVERGENCE OPTION           = 0
 RESIDUAL CONVERGENCE NORM             = INFINITY NORM   
 RELAXATION FACTOR                     =    0.97000E+00
 NUMBER OF LEVELS                      =              5
 DROP TOLERANCE                        =    0.10000E-03


 
    Solving:  Stress period:     1    Time step:     1
 
1
 STRESS PERIOD NO. 1, LENGTH =   1.000000    
 ------------------------------------------
 NUMBER OF TIME STEPS = 1
 MULTIPLIER FOR DELT =     1.000
 INITIAL TIME STEP SIZE =   1.000000    



 PSEUDO-TRANSIENT CONTINUATION WILL BE APPLIED TO MODEL 1 ("SAGEHENMODEL") DURING THIS TIME STEP

 SLN_1 OUTER ITERATION SUMMARY
 ----------------------------------------------------------------------------------------------------------------------------------------------------------------
                                OUTER      INNER  BACKTRACK  BACKTRACK        INCOMING        OUTGOING                    STEP   MAXIMUM CHANGE MODEL-(CELLID) OR
 OUTER ITERATION STEP       ITERATION  ITERATION       FLAG ITERATIONS        RESIDUAL        RESIDUAL  MAXIMUM CHANGE SUCCESS             MODEL-PACKAGE-(NUMBER)
 ----------------------------------------------------------------------------------------------------------------------------------------------------------------
 Backtracking                       1                     0          0       46487.685       46487.685                       *                                   
 Model                              1         15                                                             43.545450                             1_GWF-(2,8,61)
 Backtracking                       2                     0          0       14097.341       14097.341                       *                                   
 Model                              2         14                                                             12.604834                             1_GWF-(2,50,8)
 Backtracking                       3                     0          0       6602.3378       6602.3378                       *                                   
 Model                              3          5                                                            -11.440468                            1_GWF-(1,35,20)
 Backtracking                       4                     0          0       4269.4063       4269.4063                       *                                   
 Model                              4          6                                                            -20.650534                            1_GWF-(1,73,59)
 Backtracking                       5                     0          0       2025.9275       2025.9275                       *                                   
 Model                              5         10                                                            -33.645624                            1_GWF-(1,54,45)
 Backtracking                       6                     1          2       42236.776       2103.0255                                                           
 Model                              6         10                                                            -33.463884                            1_GWF-(1,54,45)
 Backtracking                       7                     1          2       40726.497       2084.9078                                                           
 Model                              7         10                                                            -34.205811                            1_GWF-(1,49,53)
 Backtracking                       8                     1          1       31832.371       2023.4781                                                           
 Model                              8          9                                                            -34.250616                            1_GWF-(1,49,53)
 Backtracking                       9                     1          1       14134.272       1640.3532                                                           
 Model                              9         10                                                            -32.210556                            1_GWF-(1,49,53)
 Backtracking                      10                     1          1       13832.595       1503.8420                                                           
 Model                             10         10                                                            -30.295225                            1_GWF-(1,49,53)
 Backtracking                      11                     1          1       10438.761       1379.7852                                                           
 Model                             11         10                                                            -28.436097                            1_GWF-(1,49,53)
 Backtracking                      12                     1          1       9352.6635       1268.2072                                                           
 Model                             12         10                                                            -27.599094                            1_GWF-(1,72,59)
 Backtracking                      13                     1          1       4426.8492       1184.3628                                                           
 Model                             13         10                                                            -25.985833                            1_GWF-(1,72,59)
 Backtracking                      14                     1          1       1890.8640       1114.4882                                                           
 Model                             14         10                                                            -24.437403                            1_GWF-(1,72,59)
 Backtracking                      15                     1          1       1895.3744       1024.0451                                                           
 Model                             15         10                                                            -23.007691                            1_GWF-(1,72,59)
 Backtracking                      16                     1          1       1865.9421       944.60902                                                           
 Model                             16         10                                                            -21.571629                            1_GWF-(1,72,59)
 Backtracking                      17                     1          1       1734.5488       874.29013                                                           
 Model                             17         10                                                            -20.215596                            1_GWF-(1,72,59)
 Backtracking                      18                     1          1       1092.3812       825.78315                                                           
 Model                             18         11                                                            -18.926722                            1_GWF-(1,72,59)
 Backtracking                      19                     0          0       464.22213       464.22213                       *                                   
 Model                             19         10                                                            -9.3264646                            1_GWF-(1,73,61)
 Backtracking                      20                     0          0       222.09302       222.09302                       *                                   
 Model                             20         10                                                             7.6942457                             1_GWF-(1,47,4)
 Backtracking                      21                     4          4       13912.882       273.17529                                                           
 Model                             21         10                                                             7.6933399                             1_GWF-(1,47,4)
 Backtracking                      22                     1          2       13912.465       272.60607                                                           
 Model                             22         10                                                             7.6034342                             1_GWF-(1,47,4)
 Backtracking                      23                     1          2       13872.872       271.07543                                                           
 Model                             23         10                                                             7.5163105                             1_GWF-(1,47,4)
 Backtracking                      24                     1          2       13800.644       269.56376                                                           
 Model                             24         10                                                             7.4314718                             1_GWF-(1,47,4)
 Backtracking                      25                     1          2       13772.342       268.05993                                                           
 Model                             25         10                                                             7.3485832                             1_GWF-(1,47,4)
 Backtracking                      26                     1          2       13747.268       266.56783                                                           
 Model                             26         10                                                             7.2674083                             1_GWF-(1,47,4)
 Backtracking                      27                     1          2       13724.783       265.08490                                                           
 Model                             27         10                                                             7.1877745                             1_GWF-(1,47,4)
 Backtracking                      28                     1          2       13704.405       263.52359                                                           
 Model                             28         10                                                             7.1095506                             1_GWF-(1,47,4)
 Backtracking                      29                     1          2       13685.845       262.05467                                                           
 Model                             29         10                                                             7.0326344                             1_GWF-(1,47,4)
 Backtracking                      30                     1          2       13668.822       260.59787                                                           
 Model                             30         10                                                             6.9569444                             1_GWF-(1,47,4)
 Backtracking                      31                     1          2       13653.135       259.15289                                                           
 Model                             31         10                                                             6.8824141                             1_GWF-(1,47,4)
 Backtracking                      32                     1          2       13638.625       257.71960                                                           
 Model                             32         10                                                             6.8089879                             1_GWF-(1,47,4)
 Backtracking                      33                     1          2       13625.164       256.29786                                                           
 Model                             33         10                                                             6.7366188                             1_GWF-(1,47,4)
 Backtracking                      34                     1          2       13612.647       254.88779                                                           
 Model                             34         10                                                             6.6652664                             1_GWF-(1,47,4)
 Backtracking                      35                     1          2       13600.986       253.48969                                                           
 Model                             35         10                                                             6.5948953                             1_GWF-(1,47,4)
 Backtracking                      36                     1          2       13590.108       252.10189                                                           
 Model                             36         10                                                             6.5254742                             1_GWF-(1,47,4)
 Backtracking                      37                     1          2       13579.949       250.72506                                                           
 Model                             37         10                                                             6.4569750                             1_GWF-(1,47,4)
 Backtracking                      38                     1          2       13570.457       249.35908                                                           
 Model                             38         10                                                             6.3893724                             1_GWF-(1,47,4)
 Backtracking                      39                     1          2       13561.583       248.00384                                                           
 Model                             39         10                                                             6.3226434                             1_GWF-(1,47,4)
 Backtracking                      40                     1          2       13553.287       246.65225                                                           
 Model                             40         10                                                             6.2567668                             1_GWF-(1,47,4)
 Backtracking                      41                     1          2       13545.531       245.30891                                                           
 Model                             41         10                                                             6.1917227                             1_GWF-(1,47,4)
 Backtracking                      42                     1          2       13538.284       243.97602                                                           
 Model                             42         10                                                             6.1274929                             1_GWF-(1,47,4)
 Backtracking                      43                     1          2       13531.517       242.65346                                                           
 Model                             43         10                                                             6.0640603                             1_GWF-(1,47,4)
 Backtracking                      44                     1          2       13525.202       241.34111                                                           
 Model                             44         10                                                             6.0014086                             1_GWF-(1,47,4)
 Backtracking                      45                     1          2       13519.315       240.03883                                                           
 Model                             45         10                                                             5.9395225                             1_GWF-(1,47,4)
 Backtracking                      46                     1          2       13513.836       238.74654                                                           
 Model                             46         10                                                             5.8783874                             1_GWF-(1,47,4)
 Backtracking                      47                     1          2       13508.743       237.46403                                                           
 Model                             47         10                                                             5.8179897                             1_GWF-(1,47,4)
 Backtracking                      48                     1          2       13504.019       236.19123                                                           
 Model                             48         10                                                             5.7583159                             1_GWF-(1,47,4)
 Backtracking                      49                     1          2       13499.645       234.66155                                                           
 Model                             49         11                                                             4.8458499                            1_GWF-(1,36,63)
 Backtracking                      50                     0          0       119.30733       119.30733                       *                                   
 Model                             50         10                                                            -1.8892225                            1_GWF-(1,33,73)
 Backtracking                      51                     0          0       61.382208       61.382208                       *                                   
 Model                             51          8                                                            -1.0627497                            1_GWF-(1,33,73)
 Backtracking                      52                     0          0       42.793810       42.793810                       *                                   
 Model                             52          6                                                           -0.62248978                            1_GWF-(1,32,73)
 Backtracking                      53                     0          0       27.826872       27.826872                       *                                   
 Model                             53          7                                                           -0.31855808                            1_GWF-(1,32,73)
 Backtracking                      54                     0          0       16.347693       16.347693                       *                                   
 Model                             54          7                                                           -0.17512913                            1_GWF-(1,39,48)
 Backtracking                      55                     0          0       8.8094172       8.8094172                       *                                   
 Model                             55          6                                                       -8.79062266E-02                            1_GWF-(1,39,48)
 Backtracking                      56                     0          0       4.5633145       4.5633145                       *                                   
 Model                             56          6                                                       -3.28591260E-02                            1_GWF-(1,35,48)
 Backtracking                      57                     0          0       1.8920814       1.8920814                       *                                   
 Model                             57          4                                                       -1.37435209E-02                            1_GWF-(1,35,48)
 Backtracking                      58                     0          0      0.72894235      0.72894235                       *                                   
 Model                             58          4                                                       -5.33645165E-03                            1_GWF-(1,35,48)
 Backtracking                      59                     0          0      0.27412980      0.27412980                       *                                   
 Model                             59          4                                                       -2.02060056E-03                            1_GWF-(1,35,48)
 Backtracking                      60                     0          0      0.10190999      0.10190999                       *                                   
 Model                             60          3                                                       -7.55369350E-04                            1_GWF-(1,35,48)
 Backtracking                      61                     0          0  3.76557941E-02  3.76557941E-02                       *                                   
 Model                             61          2                                                       -2.80238709E-04                            1_GWF-(1,35,48)
 Backtracking                      62                     0          0  1.38185864E-02  1.38185864E-02                       *                                   
 Model                             62          2                                                       -1.03338553E-04                            1_GWF-(1,35,48)
 Backtracking                      63                     0          0  5.08222152E-03  5.08222152E-03                       *                                   
 Model                             63          2                                                       -3.81304267E-05       *                    1_GWF-(1,35,48)
 Package                           63                                                                   7.66414768E-06       *         1_GWF-SFR-1-(168)-qfrommvr
 ----------------------------------------------------------------------------------------------------------------------------------------------------------------


 63 CALLS TO NUMERICAL SOLUTION IN TIME STEP 1 STRESS PERIOD 1
 562 TOTAL ITERATIONS

 DETAILED INFORMATION ON VARIABLES STORED IN THE MEMORY MANAGER
 -----------------------------------------------------------------------------------------------------------------------------------------------------------------------------
 ORIGIN                                             VARIABLE NAME    DATA TYPE             NUMBER OF ITEMS ASSOCIATED VARIABLE                                                
 -----------------------------------------------------------------------------------------------------------------------------------------------------------------------------
 __INPUT__/SAGEHENMODEL/DRN-1                       MOVER            INTEGER                             1 --                                                                 
 SAGEHENMODEL/DIS                                   NLAY             INTEGER                             1 --                                                                 
 SAGEHENMODEL/SFR-1                                 FTOTND           DOUBLE                            201 --                                                                 
 SAGEHENMODEL/SFR-1                                 EVAP             DOUBLE                            201 --                                                                 
 SLN_1                                              NCOL             INTEGER                             1 --                                                                 
 SAGEHENMODEL/CON                                   IANGLEX          INTEGER                             1 --                                                                 
 SLN_1/IMSLINEAR                                    ID               INTEGER                          6784 --                                                                 
 SAGEHENMODEL/SFR-1                                 HK               DOUBLE                            201 --                                                                 
 SAGEHENMODEL/MVR                                   IBUDGETOUT       INTEGER                             1 --                                                                 
 SAGEHENMODEL/SFR-1                                 PACKAGE_TYPE     STRING LEN=5                        1 --                                                                 
 SAGEHENMODEL/DIS                                   BOT              DOUBLE                           6784 --                                                                 
 SAGEHENMODEL/SFR-1                                 USTRF            DOUBLE                            201 --                                                                 
 SAGEHENMODEL/IC                                    INEWTON          INTEGER                             1 --                                                                 
 SAGEHENMODEL/UZF-1                                 ISADVPAK         INTEGER                             1 --                                                                 
 TDIS                                               PERTIMSAV        DOUBLE                              1 --                                                                 
 SAGEHENMODEL/DRN-1                                 QTFORMVR         DOUBLE                           3195 --                                                                 
 SLN_1/IMSLINEAR                                    WLU              DOUBLE                           6785 --                                                                 
 SAGEHENMODEL/CON                                   NODES            INTEGER                             1 --                                                                 
 SAGEHENMODEL/SFR-1                                 BOUND            DOUBLE                            804 --                                                                 
 SAGEHENMODEL/GNC                                   PACKAGE_TYPE     STRING LEN=5                        1 --                                                                 
 SAGEHENMODEL/CSUB                                  IAUXMULTCOL      INTEGER                             1 --                                                                 
 SAGEHENMODEL/SFR-1                                 LISTLABEL        STRING LEN=500                      1 --                                                                 
 SAGEHENMODEL/VSC                                   IPAKCB           INTEGER                             1 --                                                                 
 SAGEHENMODEL/UZF-1                                 RHS              DOUBLE                           6772 --                                                                 
 SAGEHENMODEL/MVR                                   IPRFLOW          INTEGER                             1 --                                                                 
 SAGEHENMODEL/CHD-1                                 HEAD             DOUBLE                              6 __INPUT__/SAGEHENMODEL/CHD-1/HEAD                                  
 SAGEHENMODEL/CHD-1                                 RHS              DOUBLE                              6 --                                                                 
 SLN_1/IMSLINEAR                                    IW               INTEGER                          6784 --                                                                 
 __INPUT__/SAGEHENMODEL/DIS                         NCOL             INTEGER                             1 --                                                                 
 SAGEHENMODEL/STO                                   ICONF_SS         INTEGER                             1 --                                                                 
 SLN_1/IMSLINEAR                                    ARO              DOUBLE                              1 --                                                                 
 SAGEHENMODEL/SFR-1                                 IA               INTEGER                           202 --                                                                 
 TDIS                                               TOPERTIM         DOUBLE                              1 --                                                                 
 SAGEHENMODEL/NPF                                   IHCEDGE          INTEGER                             0 --                                                                 
 SAGEHENMODEL/UZF-1                                 HA_PVAR          DOUBLE                           6772 --                                                                 
 SAGEHENMODEL/SFR-1                                 ID               INTEGER                             1 --                                                                 
 SAGEHENMODEL/NPF                                   INEWTON          INTEGER                             1 --                                                                 
 __INPUT__/SIM/NAM                                  TDIS6            STRING LEN=300                      1 --                                                                 
 SLN_1/IMSLINEAR                                    JAPC             INTEGER                         74624 --                                                                 
 __INPUT__/SAGEHENMODEL/NPF                         ICELLTYPE        INTEGER                         11826 --                                                                 
 SAGEHENMODEL/GNC                                   IPRFLOW          INTEGER                             1 --                                                                 
 SLN_1/IMSLINEAR                                    NJAPC            INTEGER                             1 --                                                                 
 SAGEHENMODEL/UZF-1                                 GWDTOMVR         DOUBLE                           6772 --                                                                 
 SAGEHENMODEL/SFR-1                                 MAXSFRIT         INTEGER                             1 --                                                                 
 SAGEHENMODEL/UZF-1                                 EXTWC            DOUBLE                           6772 --                                                                 
 SAGEHENMODEL/SFR-1                                 STORAGE_WEIGHT   DOUBLE                              1 --                                                                 
 SAGEHENMODEL/DRN-1                                 BOUND            DOUBLE                              0 --                                                                 
 SAGEHENMODEL/STO                                   IONPER           INTEGER                             1 --                                                                 
 SAGEHENMODEL/SFR-1                                 INUNIT           INTEGER                             1 --                                                                 
 SAGEHENMODEL/SFR-1                                 NCONN            INTEGER                             1 --                                                                 
 SLN_1                                              BIGCHOLD         DOUBLE                              1 --                                                                 
 SAGEHENMODEL/DIS                                   AREA             DOUBLE                           6784 --                                                                 
 SAGEHENMODEL/CHD-1                                 IBCNUM           INTEGER                             1 --                                                                 
 SAGEHENMODEL/UZF-1                                 IOUT             INTEGER                             1 --                                                                 
 SAGEHENMODEL                                       INOC             INTEGER                             1 --                                                                 
 SAGEHENMODEL/MVR                                   RESET_MAPPED_ID  LOGICAL                             1 --                                                                 
 SAGEHENMODEL/SFR-1                                 TIMECONV         DOUBLE                              1 --                                                                 
 SLN_1                                              MATRIX_OFFSET    INTEGER                             1 --                                                                 
 SLN_1/IMSLINEAR                                    JW               INTEGER                         13568 --                                                                 
 SAGEHENMODEL/MVR                                   IOUT             INTEGER                             1 --                                                                 
 SAGEHENMODEL/GNC                                   INPUT_FNAME      STRING LEN=300                      1 --                                                                 
 TDIS                                               ENDOFSIMULATION  LOGICAL                             1 --                                                                 
 SAGEHENMODEL/SFR-1                                 JA               INTEGER                           601 --                                                                 
 SAGEHENMODEL/UZF-1                                 ICONVCHK         INTEGER                             1 --                                                                 
 SLN_1                                              AMOMENTUM        DOUBLE                              1 --                                                                 
 SAGEHENMODEL/NPF                                   K22INPUT         DOUBLE                              0 --                                                                 
 SAGEHENMODEL/DRN-1                                 IPRFLOW          INTEGER                             1 --                                                                 
 SAGEHENMODEL/UZF-1                                 LISTLABEL        STRING LEN=500                      1 --                                                                 
 SAGEHENMODEL/UZF-1                                 AUXNAME          STRING LEN=16                       0 --                                                                 
 SAGEHENMODEL/UZF-1                                 DERIV            DOUBLE                           6772 --                                                                 
 SAGEHENMODEL/STO                                   PACKAGE_TYPE     STRING LEN=5                        1 --                                                                 
 SAGEHENMODEL/OC                                    INUNIT           INTEGER                             1 --                                                                 
 SAGEHENMODEL/STO                                   IPRPAK           INTEGER                             1 --                                                                 
 SAGEHENMODEL/DRN-1                                 ISADVPAK         INTEGER                             1 --                                                                 
 SLN_1                                              CONVNMOD         INTEGER                             1 --                                                                 
 SAGEHENMODEL                                       IBOUND           INTEGER                          6784 SLN_1/IBOUND                                                       
 SAGEHENMODEL/DIS                                   NJAS             INTEGER                             1 --                                                                 
 SAGEHENMODEL/NPF                                   PACKAGE_TYPE     STRING LEN=5                        1 --                                                                 
 SAGEHENMODEL/UZF-1                                 SURFLUX          DOUBLE                           6772 --                                                                 
 SAGEHENMODEL                                       INVSC            INTEGER                             1 --                                                                 
 SAGEHENMODEL/IC                                    ID               INTEGER                             1 --                                                                 
 SAGEHENMODEL/CON                                   IAUSR            INTEGER                         11827 --                                                                 
 TDIS                                               TOTIMSAV         DOUBLE                              1 --                                                                 
 SAGEHENMODEL/NPF                                   LASTONPER        INTEGER                             1 --                                                                 
 SAGEHENMODEL/CHD-1                                 BOUNDNAME_CST    STRING LEN=40                       0 --                                                                 
 SAGEHENMODEL/CSUB                                  IOUTZDISP        INTEGER                             1 --                                                                 
 __INPUT__/SAGEHENMODEL/CHD-1                       IONPER           INTEGER                             1 --                                                                 
 SAGEHENMODEL/SFR-1                                 XSHEIGHT         DOUBLE                            201 --                                                                 
 SAGEHENMODEL/UZF-1                                 WCOLD            DOUBLE                           6772 --                                                                 
 __INPUT__/SAGEHENMODEL/STO                         STORAGE          STRING LEN=300                      1 --                                                                 
 SAGEHENMODEL/SFR-1                                 BTHICK           DOUBLE                            201 --                                                                 
 SAGEHENMODEL/UZF-1                                 IBUDGETOUT       INTEGER                             1 --                                                                 
 __INPUT__/SAGEHENMODEL/DRN-1                       AUXILIARY        STRING LEN=16                       1 --                                                                 
 SAGEHENMODEL/CON                                   NJA              INTEGER                             1 --                                                                 
 SAGEHENMODEL/CSUB                                  CC_CRIT          DOUBLE                              1 --                                                                 
 SAGEHENMODEL/DRN-1                                 NPROVIDERS       INTEGER                             1 --                                                                 
 SLN_1/IMSLINEAR                                    JARO             INTEGER                             1 --                                                                 
 SAGEHENMODEL/DRN-1                                 ICUBIC_SCALING   INTEGER                             1 --                                                                 
 SAGEHENMODEL/CHD-1                                 IOUT             INTEGER                             1 --                                                                 
 SAGEHENMODEL/MVR                                   IMVRTYPE         INTEGER                          9954 --                                                                 
 SLN_1                                              ISYMMETRIC       INTEGER                             1 --                                                                 
 SAGEHENMODEL/STO                                   STRGSS           DOUBLE                           6784 --                                                                 
 SLN_1/IMSLINEAR                                    LEVEL            INTEGER                             1 --                                                                 
 __INPUT__/SAGEHENMODEL/DRN-1                       NAUX             INTEGER                             1 --                                                                 
 SAGEHENMODEL/UZF-1                                 NTRAIL           INTEGER                          6772 --                                                                 
 SAGEHENMODEL/NPF                                   ITHICKSTRT       INTEGER                             1 --                                                                 
 SAGEHENMODEL/SFR-1                                 MAXSFRPICARD     INTEGER                             1 --                                                                 
 SLN_1                                              ITERTOT_TIMESTEP INTEGER                             1 --                                                                 
 SAGEHENMODEL/STO                                   STRGSY           DOUBLE                           6784 --                                                                 
 __INPUT__/SAGEHENMODEL/CHD-1                       NCPL             INTEGER                             1 --                                                                 
 SAGEHENMODEL/UZF-1                                 UZDPST           DOUBLE                       15237000 --                                                                 
 SAGEHENMODEL/NPF                                   INVSC            INTEGER                             1 --                                                                 
 SAGEHENMODEL/MVR                                   IONPER           INTEGER                             1 --                                                                 
 SAGEHENMODEL/DRN-1                                 IAUXDDRNCOL      INTEGER                             1 --                                                                 
 __INPUT__/SAGEHENMODEL                             NETCDF_GRID      STRING LEN=300                      1 --                                                                 
 SAGEHENMODEL/XT3D                                  NOZEE            LOGICAL                             1 --                                                                 
 SAGEHENMODEL/UZF-1                                 UZET             DOUBLE                           6772 --                                                                 
 __INPUT__/SAGEHENMODEL/CHD-1                       IPER             INTEGER                             1 --                                                                 
 SLN_1                                              DVCLOSE          DOUBLE                              1 --                                                                 
 SAGEHENMODEL/NPF                                   ICELLAVG         INTEGER                             1 --                                                                 
 SAGEHENMODEL/NPF                                   IK22OVERK        INTEGER                             1 --                                                                 
 SAGEHENMODEL/UZF-1                                 ISCLOC           INTEGER                             1 --                                                                 
 __INPUT__/SAGEHENMODEL/STO                         ICONVERT         INTEGER                         11826 --                                                                 
 SAGEHENMODEL/VSC                                   INUNIT           INTEGER                             1 --                                                                 
 SLN_1/IMSLINEAR                                    ISCL             INTEGER                             1 --                                                                 
 SAGEHENMODEL/CHD-1                                 IOFFSET          INTEGER                             1 --                                                                 
 SAGEHENMODEL/MVR                                   IPRPAK           INTEGER                             1 --                                                                 
 __INPUT__/SIM/NAM                                  HPC6_FILENAME    STRING LEN=300                      0 --                                                                 
 SLN_1                                              HCHOLD           DOUBLE                              0 --                                                                 
 __INPUT__/SAGEHENMODEL/DRN-1                       AUXVAR           DOUBLE                           3195 --                                                                 
 SAGEHENMODEL/NPF                                   IREWET           INTEGER                             1 --                                                                 
 SAGEHENMODEL/NPF                                   ICELLTYPE        INTEGER                          6784 --                                                                 
 SAGEHENMODEL                                       INCSUB           INTEGER                             1 --                                                                 
 SAGEHENMODEL/BUY                                   ID               INTEGER                             1 --                                                                 
 SAGEHENMODEL/UZF-1                                 AUXVAR           DOUBLE                              0 --                                                                 
 SLN_1/IMSLINEAR                                    QHAT             DOUBLE                           6784 --                                                                 
 __INPUT__/SIM/NAM                                  PRINT_INPUT      INTEGER                             1 --                                                                 
 SAGEHENMODEL/STO                                   IPAKCB           INTEGER                             1 --                                                                 
 SAGEHENMODEL/DRN-1                                 ELEV             DOUBLE                           3195 __INPUT__/SAGEHENMODEL/DRN-1/ELEV                                  
 SLN_1                                              MXITER           INTEGER                             1 --                                                                 
 SLN_1                                              ATSFRAC          DOUBLE                              1 --                                                                 
 SAGEHENMODEL/CHD-1                                 INOBSPKG         INTEGER                             1 --                                                                 
 SAGEHENMODEL/UZF-1                                 INAMEDBOUND      INTEGER                             1 --                                                                 
 SAGEHENMODEL                                       FLOWJA           DOUBLE                          40052 --                                                                 
 SAGEHENMODEL/UZF-1                                 SURFSEEP         DOUBLE                           6772 --                                                                 
 SAGEHENMODEL/UZF-1                                 IPRFLOW          INTEGER                             1 --                                                                 
 SAGEHENMODEL/SFR-1                                 INAMEDBOUND      INTEGER                             1 --                                                                 
 TDIS                                               PERTIM           DOUBLE                              1 --                                                                 
 SAGEHENMODEL/NPF                                   IHDWET           INTEGER                             1 --                                                                 
 __INPUT__/SIM/NAM                                  SLNTYPE          STRING LEN=300                      1 --                                                                 
 SLN_1                                              PTCDEL0          DOUBLE                              1 --                                                                 
 __INPUT__/SIM                                      NUMEXCHANGES     INTEGER                             1 --                                                                 
 SAGEHENMODEL/SFR-1                                 IBUDCSV          INTEGER                             1 --                                                                 
 SAGEHENMODEL/UZF-1                                 IETFLAG          INTEGER                             1 --                                                                 
 SLN_1                                              IOUTTOT_TIMESTEP INTEGER                             1 --                                                                 
 SAGEHENMODEL/SFR-1                                 IGWFTOPNODE      INTEGER                           201 --                                                                 
 SAGEHENMODEL/CHD-1                                 IASYM            INTEGER                             1 --                                                                 
 SLN_1/IMSLINEAR                                    ITER1            INTEGER                             1 --                                                                 
 SAGEHENMODEL/VSC                                   INEWTON          INTEGER                             1 --                                                                 
 SAGEHENMODEL/CSUB                                  IOUTCOMPIB       INTEGER                             1 --                                                                 
 SAGEHENMODEL/NPF                                   IBOTNODE         INTEGER                          6784 --                                                                 
 SAGEHENMODEL/UZF-1                                 LANDFLAG         INTEGER                          6772 --                                                                 
 SLN_1/IMSLINEAR                                    ILINMETH         INTEGER                             1 --                                                                 
 __INPUT__/SAGEHENMODEL/DRN-1                       COND             DOUBLE                           3195 --                                                                 
 SAGEHENMODEL/CSUB                                  LHEAD_BASED      LOGICAL                             1 --                                                                 
 SAGEHENMODEL                                       INHFB            INTEGER                             1 --                                                                 
 SAGEHENMODEL/UZF-1                                 CELTOP           DOUBLE                           6772 --                                                                 
 __INPUT__/SAGEHENMODEL/DIS                         IDOMAIN          INTEGER                         11826 --                                                                 
 SAGEHENMODEL/BUY                                   NRHOSPECIES      INTEGER                             1 --                                                                 
 SAGEHENMODEL/NPF                                   WETDRY           DOUBLE                              1 --                                                                 
 SAGEHENMODEL/DRN-1                                 NOUPDATEAUXVAR   INTEGER                             1 --                                                                 
 SAGEHENMODEL/UZF-1                                 NPAKEQ           INTEGER                             1 --                                                                 
 SAGEHENMODEL                                       IDSOLN           INTEGER                             1 --                                                                 
 SAGEHENMODEL/SFR-1                                 QFROMMVR         DOUBLE                            201 --                                                                 
 SLN_1/IMSLINEAR                                    IAPC             INTEGER                          6785 --                                                                 
 SLN_1/IMSLINEAR                                    NIAPC            INTEGER                             1 --                                                                 
 SAGEHENMODEL/DIS                                   NOGRB            INTEGER                             1 --                                                                 
 SAGEHENMODEL/DIS                                   NROW             INTEGER                             1 --                                                                 
 SAGEHENMODEL/CSUB                                  INAMEDBOUND      INTEGER                             1 --                                                                 
 SAGEHENMODEL/HFB                                   PACKAGE_TYPE     STRING LEN=5                        1 --                                                                 
 SAGEHENMODEL/VSC                                   INPUT_FNAME      STRING LEN=300                      1 --                                                                 
 SAGEHENMODEL/NPF                                   PROPSEDGE        DOUBLE                              0 --                                                                 
 SAGEHENMODEL/NPF                                   IVARCV           INTEGER                             1 --                                                                 
 SAGEHENMODEL/MVR                                   VALUE            DOUBLE                           9954 --                                                                 
 SAGEHENMODEL/CSUB                                  LISTLABEL        STRING LEN=500                      1 --                                                                 
 SAGEHENMODEL/CSUB                                  ISCLOC           INTEGER                             1 --                                                                 
 TMPSLN_1                                           DRMAX            DOUBLE                              1 --                                                                 
 SAGEHENMODEL/XT3D                                  IXT3D            INTEGER                             1 --                                                                 
 SAGEHENMODEL/GNC                                   SMGNC            LOGICAL                             1 --                                                                 
 SAGEHENMODEL/SFR-1                                 IOUT             INTEGER                             1 --                                                                 
 SAGEHENMODEL/UZF-1                                 REJINF           DOUBLE                           6772 --                                                                 
 SAGEHENMODEL                                       IOUT             INTEGER                             1 --                                                                 
 SLN_1                                              HNCG             DOUBLE                            300 --                                                                 
 SAGEHENMODEL/CHD-1                                 BOUNDNAME        STRING LEN=40                       0 --                                                                 
 SAGEHENMODEL/DRN-1                                 LASTONPER        INTEGER                             1 --                                                                 
 SAGEHENMODEL/CSUB                                  NDELAYBEDS       INTEGER                             1 --                                                                 
 SAGEHENMODEL/UZF-1                                 NPROVIDERS       INTEGER                             1 --                                                                 
 __INPUT__/SAGEHENMODEL/DRN-1                       MAXBOUND         INTEGER                             1 --                                                                 
 SAGEHENMODEL/CSUB                                  IOUTCOMPE        INTEGER                             1 --                                                                 
 __INPUT__/SAGEHENMODEL                             PKGTYPES         STRING LEN=7                       10 --                                                                 
 SAGEHENMODEL                                       INSTO            INTEGER                             1 --                                                                 
 SAGEHENMODEL/CSUB                                  IOUTCOMPI        INTEGER                             1 --                                                                 
 SAGEHENMODEL/CHD-1                                 IMOVER           INTEGER                             1 --                                                                 
 SAGEHENMODEL/STO                                   SS               DOUBLE                           6784 --                                                                 
 SAGEHENMODEL/SFR-1                                 QFORMVR          DOUBLE                            201 --                                                                 
 SAGEHENMODEL/MVR                                   IPAKCB           INTEGER                             1 --                                                                 
 SLN_1/IMSLINEAR                                    NITERC           INTEGER                             1 --                                                                 
 SAGEHENMODEL/IC                                    INPUT_FNAME      STRING LEN=300                      1 --                                                                 
 SAGEHENMODEL/CHD-1                                 AUXNAME_CST      STRING LEN=16                       0 --                                                                 
 SAGEHENMODEL/CON                                   IHC              INTEGER                         16634 --                                                                 
 SAGEHENMODEL/CSUB                                  NDELAYCELLS      INTEGER                             1 --                                                                 
 SAGEHENMODEL/STO                                   SY               DOUBLE                           6784 --                                                                 
 SAGEHENMODEL/DRN-1                                 INPUT_FNAME      STRING LEN=300                      1 --                                                                 
 SAGEHENMODEL/CSUB                                  IOUTCOMPS        INTEGER                             1 --                                                                 
 SAGEHENMODEL/MVR                                   IBUDCSV          INTEGER                             1 --                                                                 
 SAGEHENMODEL/CSUB                                  ISTRAINSK        INTEGER                             1 --                                                                 
 SLN_1                                              INNERTOT_SIM     INTEGER                             1 --                                                                 
 __INPUT__/SAGEHENMODEL/NAM                         UNDER_RELAXATION INTEGER                             1 --                                                                 
 SAGEHENMODEL/DRN-1                                 CONDINPUT        DOUBLE                              0 --                                                                 
 SAGEHENMODEL/SFR-1                                 IGWFNODE         INTEGER                           201 --                                                                 
 SAGEHENMODEL/CSUB                                  SATOMEGA         DOUBLE                              1 --                                                                 
 __INPUT__/SIM/TDIS                                 NSTP             INTEGER                             1 --                                                                 
 SAGEHENMODEL/CHD-1                                 IONPER           INTEGER                             1 --                                                                 
 SAGEHENMODEL/UZF-1                                 IPRWCONT         INTEGER                             1 --                                                                 
 SAGEHENMODEL/DIS                                   DELC             DOUBLE                             73 --                                                                 
 SAGEHENMODEL/CSUB                                  IPCH             INTEGER                             1 --                                                                 
 SAGEHENMODEL/SFR-1                                 IDIR             INTEGER                           601 --                                                                 
 __INPUT__/SAGEHENMODEL/DIS                         NLAY             INTEGER                             1 --                                                                 
 SAGEHENMODEL/BUY                                   IASYM            INTEGER                             1 --                                                                 
 SAGEHENMODEL/UZF-1                                 IASYM            INTEGER                             1 --                                                                 
 SAGEHENMODEL/SFR-1                                 IDIV             INTEGER                           601 --                                                                 
 SAGEHENMODEL/MVR                                   MAXPACKAGES      INTEGER                             1 --                                                                 
 SAGEHENMODEL/BUY                                   DENSEREF         DOUBLE                              1 --                                                                 
 SAGEHENMODEL/CHD-1                                 IPRPAK           INTEGER                             1 --                                                                 
 SAGEHENMODEL/UZF-1                                 QFROMMVR         DOUBLE                           6772 --                                                                 
 SAGEHENMODEL/CSUB                                  INOBSPKG         INTEGER                             1 --                                                                 
 SAGEHENMODEL/NPF                                   IANGLE1          INTEGER                             1 --                                                                 
 SAGEHENMODEL/NPF                                   IANGLE2          INTEGER                             1 --                                                                 
 SAGEHENMODEL/STO                                   INTVS            INTEGER                             1 --                                                                 
 SAGEHENMODEL/NPF                                   IANGLE3          INTEGER                             1 --                                                                 
 SAGEHENMODEL/STO                                   INUNIT           INTEGER                             1 --                                                                 
 SAGEHENMODEL/SFR-1                                 IPRHED           INTEGER                             1 --                                                                 
 SAGEHENMODEL/DIS                                   DELR             DOUBLE                             81 --                                                                 
 SLN_1/IMSLINEAR                                    NJA              INTEGER                             1 --                                                                 
 SAGEHENMODEL/NPF                                   K33INPUT         DOUBLE                              0 --                                                                 
 SAGEHENMODEL/SFR-1                                 USFLOW0          DOUBLE                            201 --                                                                 
 SAGEHENMODEL/SFR-1                                 STAGE0           DOUBLE                            201 --                                                                 
 SAGEHENMODEL/SFR-1                                 NODELIST         INTEGER                           201 --                                                                 
 SAGEHENMODEL/SFR-1                                 DEPS             DOUBLE                              1 --                                                                 
 SLN_1/IMSLINEAR                                    RELAX            DOUBLE                              1 --                                                                 
 SLN_1/IMSLINEAR                                    IARO             INTEGER                             2 --                                                                 
 SAGEHENMODEL                                       INNPF            INTEGER                             1 --                                                                 
 SAGEHENMODEL/GNC                                   IMPLICIT         LOGICAL                             1 --                                                                 
 SAGEHENMODEL/DRN-1                                 HCOF             DOUBLE                           3195 --                                                                 
 SAGEHENMODEL/SFR-1                                 STRTOP           DOUBLE                            201 --                                                                 
 SAGEHENMODEL/SFR-1                                 QFROMMVR0        DOUBLE                            201 --                                                                 
 SAGEHENMODEL/GNC                                   IONPER           INTEGER                             1 --                                                                 
 __INPUT__/SAGEHENMODEL/DRN-1                       CELLID           INTEGER                          9585 --                                                                 
 SAGEHENMODEL/DRN-1                                 ISCLOC           INTEGER                             1 --                                                                 
 __INPUT__/SAGEHENMODEL/NPF                         INPUT_FNAME      STRING LEN=300                      1 --                                                                 
 SAGEHENMODEL/SFR-1                                 STATION          DOUBLE                            201 --                                                                 
 SLN_1/IMSLINEAR                                    NJW              INTEGER                             1 --                                                                 
 SAGEHENMODEL/NPF                                   HDRY             DOUBLE                              1 --                                                                 
 SAGEHENMODEL/UZF-1                                 NWAV             INTEGER                          6772 --                                                                 
 SAGEHENMODEL/STO                                   ICONVERT         INTEGER                          6784 --                                                                 
 SAGEHENMODEL/HFB                                   IONPER           INTEGER                             1 --                                                                 
 SAGEHENMODEL                                       INEWTON          INTEGER                             1 --                                                                 
 SAGEHENMODEL/HFB                                   IPRFLOW          INTEGER                             1 --                                                                 
 TMPSLN_1                                           CONVNMOD         INTEGER                             1 --                                                                 
 SAGEHENMODEL/GNC                                   NEXG             INTEGER                             1 --                                                                 
 SAGEHENMODEL/DIS                                   INUNIT           INTEGER                             1 --                                                                 
[...]
 SAGEHENMODEL/DIS                                   XORIGIN          DOUBLE                              1 --                                                                 
 SLN_1                                              JA               INTEGER                         40052 --                                                                 
 __INPUT__/SIM/TDIS                                 TSMULT           DOUBLE                              1 --                                                                 
 SAGEHENMODEL/SFR-1                                 IANYNONE         INTEGER                             1 --                                                                 
 SAGEHENMODEL/UZF-1                                 SIMTOMVR         DOUBLE                           6772 --                                                                 
 SAGEHENMODEL/VSC                                   IOUT             INTEGER                             1 --                                                                 
 __INPUT__/SIM/TDIS                                 NPER             INTEGER                             1 --                                                                 
 SAGEHENMODEL/DRN-1                                 SIMVALS          DOUBLE                           3195 --                                                                 
 SAGEHENMODEL/SFR-1                                 QTFORMVR         DOUBLE                            201 --                                                                 
 SAGEHENMODEL/CHD-1                                 PACKAGE_TYPE     STRING LEN=5                        1 --                                                                 
 SAGEHENMODEL/BUY                                   LASTONPER        INTEGER                             1 --                                                                 
 SAGEHENMODEL/SFR-1                                 NPROVIDERS       INTEGER                             1 --                                                                 
 SAGEHENMODEL/UZF-1                                 TOTFLUX          DOUBLE                           6772 --                                                                 
 __INPUT__/SAGEHENMODEL                             NCELLDIM         INTEGER                             1 --                                                                 
 SAGEHENMODEL/SFR-1                                 SIMRUNOFF        DOUBLE                            201 --                                                                 
 SAGEHENMODEL/DRN-1                                 QFROMMVR0        DOUBLE                              0 --                                                                 
 SAGEHENMODEL/STO                                   ID               INTEGER                             1 --                                                                 
 SAGEHENMODEL/IC                                    IOUT             INTEGER                             1 --                                                                 
 SAGEHENMODEL                                       INBUY            INTEGER                             1 --                                                                 
 SAGEHENMODEL/SFR-1                                 NAUX             INTEGER                             1 --                                                                 
 SLN_1                                              AKAPPA           DOUBLE                              1 --                                                                 
 SAGEHENMODEL/SFR-1                                 ISFRORDER        INTEGER                           201 --                                                                 
 SAGEHENMODEL/DIS                                   IDOMAIN          INTEGER                         11826 --                                                                 
 SLN_1                                              PTCEXP           DOUBLE                              1 --                                                                 
 SAGEHENMODEL/CSUB                                  ISTRAINIB        INTEGER                             1 --                                                                 
 __INPUT__/SIM/NAM                                  EXGTYPE          STRING LEN=300                      0 --                                                                 
 SLN_1                                              RES_LIM          DOUBLE                              1 --                                                                 
 SAGEHENMODEL/VSC                                   IONPER           INTEGER                             1 --                                                                 
 SAGEHENMODEL/DRN-1                                 RHS              DOUBLE                           3195 --                                                                 
 SAGEHENMODEL/CHD-1                                 NODELIST         INTEGER                             6 --                                                                 
 SAGEHENMODEL/CHD-1                                 LISTLABEL        STRING LEN=500                      1 --                                                                 
 SAGEHENMODEL/UZF-1                                 IPAKCSV          INTEGER                             1 --                                                                 
 SLN_1                                              THETA            DOUBLE                              1 --                                                                 
 TMPSLN_1                                           CONVLOCDR        INTEGER                             1 --                                                                 
 __INPUT__/SIM/NAM                                  MXITER           INTEGER                             1 --                                                                 
 SAGEHENMODEL/UZF-1                                 WCNEW            DOUBLE                           6772 --                                                                 
 TMPSLN_1                                           CONVLOCDV        INTEGER                             1 --                                                                 
 SLN_1/IMSLINEAR                                    D                DOUBLE                           6784 --                                                                 
 __INPUT__/SIM/NAM                                  CONTINUE         INTEGER                             1 --                                                                 
 SAGEHENMODEL/DRN-1                                 AUXNAME_CST      STRING LEN=16                       1 --                                                                 
 SAGEHENMODEL/CSUB                                  ID               INTEGER                             1 --                                                                 
 SLN_1/IMSLINEAR                                    NJLU             INTEGER                             1 --                                                                 
 SAGEHENMODEL/UZF-1                                 REJINF0          DOUBLE                           6772 --                                                                 
 SAGEHENMODEL/SFR-1                                 RHS              DOUBLE                            201 --                                                                 
 SAGEHENMODEL/CSUB                                  ISPECIFIED_PCS   INTEGER                             1 --                                                                 
 SAGEHENMODEL/CHD-1                                 RATECHDOUT       DOUBLE                              6 --                                                                 
 SAGEHENMODEL/DIS                                   NODES            INTEGER                             1 --                                                                 
 SAGEHENMODEL/DIS                                   NODESUSER        INTEGER                             1 --                                                                 
 SAGEHENMODEL/UZF-1                                 NCOLBND          INTEGER                             1 --                                                                 
 SAGEHENMODEL/VSC                                   IPRPAK           INTEGER                             1 --                                                                 
 SAGEHENMODEL/HFB                                   INPUT_FNAME      STRING LEN=300                      1 --                                                                 
 SAGEHENMODEL/UZF-1                                 NWAVST           INTEGER                          6772 --                                                                 
 SAGEHENMODEL/SFR-1                                 IPAKCB           INTEGER                             1 --                                                                 
 SAGEHENMODEL/DRN-1                                 BOUNDNAME        STRING LEN=40                       0 --                                                                 
 SLN_1/IMSLINEAR                                    P                DOUBLE                           6784 --                                                                 
 SLN_1/IMSLINEAR                                    Q                DOUBLE                           6784 --                                                                 
 SAGEHENMODEL/UZF-1                                 UZFLST           DOUBLE                       15237000 --                                                                 
 SLN_1/IMSLINEAR                                    T                DOUBLE                           6784 --                                                                 
 SLN_1/IMSLINEAR                                    V                DOUBLE                           6784 --                                                                 
 SLN_1/IMSLINEAR                                    W                DOUBLE                           6784 --                                                                 
 SAGEHENMODEL/UZF-1                                 NODES            INTEGER                             1 --                                                                 
 SLN_1/IMSLINEAR                                    APC              DOUBLE                          74624 --                                                                 
 SLN_1/IMSLINEAR                                    Z                DOUBLE                           6784 --                                                                 
 SAGEHENMODEL/DRN-1                                 SIMTOMVR         DOUBLE                           3195 --                                                                 
 SLN_1/IMSLINEAR                                    DSCALE2          DOUBLE                              1 --                                                                 
 SAGEHENMODEL                                       MACRONYM         STRING LEN=3                        1 --                                                                 
 SAGEHENMODEL/IC                                    STRT             DOUBLE                           6784 --                                                                 
 SAGEHENMODEL/SFR-1                                 ISADVPAK         INTEGER                             1 --                                                                 
 SAGEHENMODEL/UZF-1                                 VKS              DOUBLE                           6772 --                                                                 
 SAGEHENMODEL                                       NJA              INTEGER                             1 --                                                                 
 SAGEHENMODEL/DRN-1                                 INUNIT           INTEGER                             1 --                                                                 
 SAGEHENMODEL/UZF-1                                 NRECEIVERS       INTEGER                             1 --                                                                 
 SAGEHENMODEL/NPF                                   SATOMEGA         DOUBLE                              1 --                                                                 
 SAGEHENMODEL/VSC                                   ID               INTEGER                             1 --                                                                 
 SAGEHENMODEL/SFR-1                                 IBOUNDPAK        INTEGER                           201 --                                                                 
 SAGEHENMODEL/CHD-1                                 CELLID           INTEGER                            18 __INPUT__/SAGEHENMODEL/CHD-1/CELLID                                
 SAGEHENMODEL/STO                                   IOUT             INTEGER                             1 --                                                                 
 SAGEHENMODEL/GNC                                   IASYM            INTEGER                             1 --                                                                 
 __INPUT__/SIM/NAM                                  MTYPE            STRING LEN=300                      1 --                                                                 
 SAGEHENMODEL/SFR-1                                 IPRFLOW          INTEGER                             1 --                                                                 
 SLN_1                                              GAMMA            DOUBLE                              1 --                                                                 
 SAGEHENMODEL/VSC                                   IOUTVISC         INTEGER                             1 --                                                                 
 SAGEHENMODEL/HFB                                   INEWTON          INTEGER                             1 --                                                                 
 SAGEHENMODEL/STO                                   IUSESY           INTEGER                             1 --                                                                 
 SAGEHENMODEL/CHD-1                                 INAMEDBOUND      INTEGER                             1 --                                                                 
 SAGEHENMODEL/UZF-1                                 QTFORMVR         DOUBLE                           6772 --                                                                 
 SAGEHENMODEL/DIS                                   BOT3D            DOUBLE                          11826 --                                                                 
 SAGEHENMODEL/DRN-1                                 AUXNAME          STRING LEN=16                       1 --                                                                 
 SLN_1                                              XTEMP            DOUBLE                           6784 --                                                                 
 SAGEHENMODEL/SFR-1                                 IPRMAP           INTEGER                           201 --                                                                 
 SAGEHENMODEL/UZF-1                                 IAUXMULTCOL      INTEGER                             1 --                                                                 
 SAGEHENMODEL/MVR                                   INPUT_FNAME      STRING LEN=300                      1 --                                                                 
 SAGEHENMODEL/SFR-1                                 IAUXMULTCOL      INTEGER                             1 --                                                                 
 SLN_1/IMSLINEAR                                    DROPTOL          DOUBLE                              1 --                                                                 
 __INPUT__/SIM/NAM                                  SOLUTIONGROUPNUM INTEGER                             1 --                                                                 
 __INPUT__/SIM                                      NUMMODELS        INTEGER                             1 --                                                                 
 SAGEHENMODEL/SFR-1                                 WIDTH            DOUBLE                            201 --                                                                 
 TDIS                                               KPER             INTEGER                             1 --                                                                 
 TMPSLN_1                                           NITERMAX         INTEGER                             1 --                                                                 
 SLN_1/IMSLINEAR                                    NIABCGS          INTEGER                             1 --                                                                 
 SAGEHENMODEL/NPF                                   ISAVSAT          INTEGER                             1 --                                                                 
 SAGEHENMODEL/UZF-1                                 SIMVALS          DOUBLE                           6772 --                                                                 
 SAGEHENMODEL/CON                                   JAS              INTEGER                         40052 --                                                                 
 SAGEHENMODEL/CHD-1                                 NBOUND           INTEGER                             1 --                                                                 
 SLN_1                                              TTFORM           DOUBLE                              1 --                                                                 
 SAGEHENMODEL/CSUB                                  IUPDATESTRESS    INTEGER                             1 --                                                                 
 SAGEHENMODEL/SFR-1                                 ICONVCHK         INTEGER                             1 --                                                                 
 SAGEHENMODEL/UZF-1                                 PET              DOUBLE                           6772 --                                                                 
 -----------------------------------------------------------------------------------------------------------------------------------------------------------------------------



 MEMORY MANAGER TOTAL STORAGE BY DATA TYPE, IN MEGABYTES
 -------------------------------
                    ALLOCATED   
 DATA TYPE           MEMORY     
 -------------------------------
 Character        2.52500000E-02
 Logical          4.80000000E-05
 Integer          2.8129360     
 Real             495.87211     
 -------------------------------
 Total            498.71035     
 Virtual          0.0000000     
 -------------------------------


 
 Run end date and time (yyyy/mm/dd hh:mm:ss): 2025/02/08 18:52:30
 Elapsed run time:  2.811 Seconds

WARNING REPORT:

  1. OPTIONS BLOCK VARIABLE 'UNIT_CONVERSION' IN FILE 'gwf_sagehen-gsf.sfr'
     WAS DEPRECATED IN VERSION 6.4.2. SETTING UNIT_CONVERSION DIRECTLY.
 Normal termination of simulation.
