                                   MODFLOW 6
                U.S. GEOLOGICAL SURVEY MODULAR HYDROLOGIC MODEL
                          GROUNDWATER FLOW MODEL (GWF)
                            VERSION 6.6.0 12/20/2024

   MODFLOW 6 compiled Dec 31 2024 17:12:23 with Intel(R) Fortran Intel(R) 64
   Compiler Classic for applications running on Intel(R) 64, Version 2021.7.0
                             Build 20220726_000000

This software has been approved for release by the U.S. Geological 
Survey (USGS). Although the software has been subjected to rigorous 
review, the USGS reserves the right to update the software as needed 
pursuant to further analysis and review. No warranty, expressed or 
implied, is made by the USGS or the U.S. Government as to the 
functionality of the software and related material nor shall the 
fact of release constitute any such warranty. Furthermore, the 
software is released on condition that neither the USGS nor the U.S. 
Government shall be held liable for any damages resulting from its 
authorized or unauthorized use. Also refer to the USGS Water 
Resources Software User Rights Notice for complete use, copyright, 
and distribution information.


As a work of the United States Government, this USGS product is 
in the public domain within the United States. You can copy, 
modify, distribute, and perform the work, even for commercial 
purposes, all without asking permission. Additionally, USGS 
waives copyright and related rights in the work worldwide 
through CC0 1.0 Universal Public Domain Dedication 
(https://creativecommons.org/publicdomain/zero/1.0/).

The following GNU Lesser General Public License (LGPL) libraries
are used in this USGS product:

    SPARSKIT version 2.0
      ilut, luson, and qsplit 
      (https://www-users.cse.umn.edu/~saad/software/SPARSKIT/)

    RCM - Reverse Cuthill McKee Ordering
      (https://people.math.sc.edu/Burkardt/f_src/rcm/rcm.html)

    BLAS - Basic Linear Algebra Subprograms Level 1
      (https://people.math.sc.edu/Burkardt/f_src/blas1_d/blas1_d.html)

    SPARSEKIT - Sparse Matrix Utility Package
      amux, dperm, dvperm, rperm, and cperm
      (https://people.sc.fsu.edu/~jburkardt/f77_src/sparsekit/sparsekit.html)

The following BSD-3 License libraries are used in this USGS product:

    Modern Fortran DAG Library
      Copyright (c) 2018, Jacob Williams
      All rights reserved.
      (https://github.com/jacobwilliams/daglib)

MODFLOW 6 compiler options: /O2 /heap-arrays:0 /fpe:0 /traceback /nologo /fpp
/c /module:win64\mod_libmf6\ /object:win64\obj_libmf6\

System command used to initiate simulation:
C:\Users\luiggi\AppData\Local\Programs\Python\Python313\python.exe -m ipykernel_launcher -f C:\Users\luiggi\AppData\Roaming\jupyter\runtime\kernel-c87baf04-8cef-4bf7-a24c-c65bc1c8c1fc.json

MODFLOW was compiled using uniform precision.

Real Variables
  KIND: 8
  TINY (smallest non-zero value):    2.225074-308
  HUGE (largest value):    1.797693+308
  PRECISION: 15
  SIZE IN BITS: 64

Integer Variables
  KIND: 4
  HUGE (largest value): 2147483647
  SIZE IN BITS: 32

Long Integer Variables
  KIND: 8
  HUGE (largest value): 9223372036854775807
  SIZE IN BITS: 64

Logical Variables
  KIND: 4
  SIZE IN BITS: 32
 
 NAMEFILE OPTIONS:
    NEWTON-RAPHSON method enabled for the model.
    NEWTON-RAPHSON UNDER-RELAXATION based on the bottom elevation of the model will be applied to the model.
 END NAMEFILE OPTIONS:

 DIS -- STRUCTURED GRID DISCRETIZATION PACKAGE, VERSION 2 : 3/27/2014 - INPUT READ FROM MEMPATH: __INPUT__/ETMODEL/DIS                             


 NPF -- NODE PROPERTY FLOW PACKAGE, VERSION 1, 3/30/2015 INPUT READ FROM MEMPATH: __INPUT__/ETMODEL/NPF                             


 IC -- Initial Conditions Package, Version 8, 3/28/2015 input read from mempath: __INPUT__/ETMODEL/IC                              


 Setting Discretization Options
    Model length unit [0=UND, 1=FEET, 2=METERS, 3=CENTIMETERS] set as 2
 End Setting Discretization Options

 Setting Discretization Dimensions
    NLAY = 10
    NROW = 1
    NCOL = 1
 End Setting Discretization Dimensions

 Setting Discretization Griddata
    DELR set from input file
    DELC set from input file
    TOP set from input file
    BOTM set from input file
 End Setting Discretization Griddata

 Setting NPF Options
 End Setting NPF Options

 Setting NPF Griddata
    ICELLTYPE set from input file
    K set from input file
    K33 not provided.  Setting K33 = K.
    K22 not provided.  Setting K22 = K.
 End Setting NPF Griddata


 API   -- API PACKAGE, VERSION 8, 2/22/2014 INPUT READ FROM UNIT 1045
 # File generated by Flopy version 3.9.1 on 02/10/2025 at 11:24:45.

 PROCESSING API OPTIONS
 END OF API OPTIONS

 PROCESSING API DIMENSIONS
    MAXBOUND =       1
 END OF API DIMENSIONS
    STRT set from input file

 STO -- STORAGE PACKAGE, VERSION 1, 5/19/2014 INPUT READ FROM MEMPATH: __INPUT__/ETMODEL/STO                             


 PROCESSING STORAGE OPTIONS
 END OF STORAGE OPTIONS

The observation utility is active for "ETMODEL"
 # File generated by Flopy version 3.9.1 on 02/10/2025 at 11:24:45.

Processing observation options:


    BINARY GRID INFORMATION WILL BE WRITTEN TO:
      UNIT NUMBER: 1049
      FILE NAME: etmodel.dis.grb

 OPENED etmodel.dis.grb
 FILE TYPE:DATA(BINARY)   UNIT 1049   STATUS:REPLACE             
 FORMAT:UNFORMATTED            ACCESS:STREAM              
 ACTION:READWRITE           

      THE LAST TIME STEP WILL BE PRINTED
      THE LAST TIME STEP WILL BE PRINTED
 # File generated by Flopy version 3.9.1 on 02/10/2025 at 11:24:45.

 PROCESSING OC OPTIONS

 END OF OC OPTIONS

start timestep kper="1" kstp="1" mode="normal"


 BEGIN READING OUTPUT CONTROL FOR STRESS PERIOD 1
      ALL TIME STEPS WILL BE PRINTED

 END READING OUTPUT CONTROL FOR STRESS PERIOD 1


  VOLUME BUDGET FOR ENTIRE MODEL AT END OF TIME STEP    1, STRESS PERIOD   1
  ---------------------------------------------------------------------------------------------------

     CUMULATIVE VOLUME      L**3       RATES FOR THIS TIME STEP      L**3/T          PACKAGE NAME    
     ------------------                 ------------------------                     ----------------

           IN:                                      IN:
           ---                                      ---
              STO-SS =           0.0000                STO-SS =           0.0000     STORAGE                          
              STO-SY =           0.0000                STO-SY =           0.0000     STORAGE                          
                 API =           0.0000                   API =           0.0000     BMI-ET                           

            TOTAL IN =           0.0000              TOTAL IN =           0.0000

          OUT:                                     OUT:
          ----                                     ----
              STO-SS =           0.0000                STO-SS =           0.0000     STORAGE                          
              STO-SY =           0.0000                STO-SY =           0.0000     STORAGE                          
                 API =       1.9401E-21                   API =       6.0000E-02     BMI-ET                           

           TOTAL OUT =       1.9401E-21             TOTAL OUT =       6.0000E-02

            IN - OUT =      -1.9401E-21              IN - OUT =      -6.0000E-02

 PERCENT DISCREPANCY =        -200.00     PERCENT DISCREPANCY =        -200.00




         TIME SUMMARY AT END OF TIME STEP    1 IN STRESS PERIOD    1
                    SECONDS     MINUTES      HOURS       DAYS        YEARS
                    -----------------------------------------------------------
   TIME STEP LENGTH 2.79373E-15 4.65622E-17 7.76037E-19 3.23349E-20 8.85280E-23
 STRESS PERIOD TIME 2.79373E-15 4.65622E-17 7.76037E-19 3.23349E-20 8.85280E-23
         TOTAL TIME 2.79373E-15 4.65622E-17 7.76037E-19 3.23349E-20 8.85280E-23


end timestep


start timestep kper="1" kstp="2" mode="normal"



  VOLUME BUDGET FOR ENTIRE MODEL AT END OF TIME STEP    2, STRESS PERIOD   1
  ---------------------------------------------------------------------------------------------------

     CUMULATIVE VOLUME      L**3       RATES FOR THIS TIME STEP      L**3/T          PACKAGE NAME    
     ------------------                 ------------------------                     ----------------

           IN:                                      IN:
           ---                                      ---
              STO-SS =           0.0000                STO-SS =           0.0000     STORAGE                          
              STO-SY =           0.0000                STO-SY =           0.0000     STORAGE                          
                 API =           0.0000                   API =           0.0000     BMI-ET                           

            TOTAL IN =           0.0000              TOTAL IN =           0.0000

          OUT:                                     OUT:
          ----                                     ----
              STO-SS =           0.0000                STO-SS =           0.0000     STORAGE                          
              STO-SY =           0.0000                STO-SY =           0.0000     STORAGE                          
                 API =       3.9772E-21                   API =       6.0000E-02     BMI-ET                           

           TOTAL OUT =       3.9772E-21             TOTAL OUT =       6.0000E-02

            IN - OUT =      -3.9772E-21              IN - OUT =      -6.0000E-02

 PERCENT DISCREPANCY =        -200.00     PERCENT DISCREPANCY =        -200.00




         TIME SUMMARY AT END OF TIME STEP    2 IN STRESS PERIOD    1
                    SECONDS     MINUTES      HOURS       DAYS        YEARS
                    -----------------------------------------------------------
   TIME STEP LENGTH 2.93342E-15 4.88903E-17 8.14838E-19 3.39516E-20 9.29544E-23
 STRESS PERIOD TIME 5.72715E-15 9.54525E-17 1.59087E-18 6.62865E-20 1.81482E-22
         TOTAL TIME 5.72715E-15 9.54525E-17 1.59087E-18 6.62865E-20 1.81482E-22


end timestep


start timestep kper="1" kstp="3" mode="normal"



  VOLUME BUDGET FOR ENTIRE MODEL AT END OF TIME STEP    3, STRESS PERIOD   1
  ---------------------------------------------------------------------------------------------------

     CUMULATIVE VOLUME      L**3       RATES FOR THIS TIME STEP      L**3/T          PACKAGE NAME    
     ------------------                 ------------------------                     ----------------

           IN:                                      IN:
           ---                                      ---
              STO-SS =           0.0000                STO-SS =           0.0000     STORAGE                          
              STO-SY =           0.0000                STO-SY =           0.0000     STORAGE                          
                 API =           0.0000                   API =           0.0000     BMI-ET                           

            TOTAL IN =           0.0000              TOTAL IN =           0.0000

          OUT:                                     OUT:
          ----                                     ----
              STO-SS =           0.0000                STO-SS =           0.0000     STORAGE                          
              STO-SY =           0.0000                STO-SY =           0.0000     STORAGE                          
                 API =       6.1161E-21                   API =       6.0000E-02     BMI-ET                           

           TOTAL OUT =       6.1161E-21             TOTAL OUT =       6.0000E-02

            IN - OUT =      -6.1161E-21              IN - OUT =      -6.0000E-02

 PERCENT DISCREPANCY =        -200.00     PERCENT DISCREPANCY =        -200.00




         TIME SUMMARY AT END OF TIME STEP    3 IN STRESS PERIOD    1
                    SECONDS     MINUTES      HOURS       DAYS        YEARS
                    -----------------------------------------------------------
   TIME STEP LENGTH 3.08009E-15 5.13348E-17 8.55580E-19 3.56492E-20 9.76021E-23
 STRESS PERIOD TIME 8.80724E-15 1.46787E-16 2.44646E-18 1.01936E-19 2.79085E-22
         TOTAL TIME 8.80724E-15 1.46787E-16 2.44646E-18 1.01936E-19 2.79085E-22


end timestep


start timestep kper="1" kstp="4" mode="normal"



  VOLUME BUDGET FOR ENTIRE MODEL AT END OF TIME STEP    4, STRESS PERIOD   1
  ---------------------------------------------------------------------------------------------------

     CUMULATIVE VOLUME      L**3       RATES FOR THIS TIME STEP      L**3/T          PACKAGE NAME    
     ------------------                 ------------------------                     ----------------

           IN:                                      IN:
           ---                                      ---
              STO-SS =           0.0000                STO-SS =           0.0000     STORAGE                          
              STO-SY =           0.0000                STO-SY =           0.0000     STORAGE                          
                 API =           0.0000                   API =           0.0000     BMI-ET                           

            TOTAL IN =           0.0000              TOTAL IN =           0.0000

          OUT:                                     OUT:
          ----                                     ----
              STO-SS =           0.0000                STO-SS =           0.0000     STORAGE                          
              STO-SY =           0.0000                STO-SY =           0.0000     STORAGE                          
                 API =       8.3620E-21                   API =       6.0000E-02     BMI-ET                           

           TOTAL OUT =       8.3620E-21             TOTAL OUT =       6.0000E-02

            IN - OUT =      -8.3620E-21              IN - OUT =      -6.0000E-02

 PERCENT DISCREPANCY =        -200.00     PERCENT DISCREPANCY =        -200.00




         TIME SUMMARY AT END OF TIME STEP    4 IN STRESS PERIOD    1
                    SECONDS     MINUTES      HOURS       DAYS        YEARS
                    -----------------------------------------------------------
   TIME STEP LENGTH 3.23409E-15 5.39016E-17 8.98359E-19 3.74316E-20 1.02482E-22
 STRESS PERIOD TIME 1.20413E-14 2.00689E-16 3.34481E-18 1.39367E-19 3.81567E-22
         TOTAL TIME 1.20413E-14 2.00689E-16 3.34481E-18 1.39367E-19 3.81567E-22


end timestep


start timestep kper="1" kstp="5" mode="normal"



  VOLUME BUDGET FOR ENTIRE MODEL AT END OF TIME STEP    5, STRESS PERIOD   1
  ---------------------------------------------------------------------------------------------------

     CUMULATIVE VOLUME      L**3       RATES FOR THIS TIME STEP      L**3/T          PACKAGE NAME    
     ------------------                 ------------------------                     ----------------

           IN:                                      IN:
           ---                                      ---
              STO-SS =           0.0000                STO-SS =           0.0000     STORAGE                          
              STO-SY =           0.0000                STO-SY =           0.0000     STORAGE                          
                 API =           0.0000                   API =           0.0000     BMI-ET                           

            TOTAL IN =           0.0000              TOTAL IN =           0.0000

          OUT:                                     OUT:
          ----                                     ----
              STO-SS =       1.5721E-19                STO-SS =           4.0000     STORAGE                          
              STO-SY =           0.0000                STO-SY =           0.0000     STORAGE                          
                 API =       1.0720E-20                   API =       6.0000E-02     BMI-ET                           

           TOTAL OUT =       1.6793E-19             TOTAL OUT =           4.0600

            IN - OUT =      -1.6793E-19              IN - OUT =          -4.0600

 PERCENT DISCREPANCY =        -200.00     PERCENT DISCREPANCY =        -200.00




         TIME SUMMARY AT END OF TIME STEP    5 IN STRESS PERIOD    1
                    SECONDS     MINUTES      HOURS       DAYS        YEARS
                    -----------------------------------------------------------
   TIME STEP LENGTH 3.39580E-15 5.65966E-17 9.43277E-19 3.93032E-20 1.07606E-22
 STRESS PERIOD TIME 1.54371E-14 2.57286E-16 4.28809E-18 1.78670E-19 4.89173E-22
         TOTAL TIME 1.54371E-14 2.57286E-16 4.28809E-18 1.78670E-19 4.89173E-22


end timestep


start timestep kper="1" kstp="6" mode="normal"



  VOLUME BUDGET FOR ENTIRE MODEL AT END OF TIME STEP    6, STRESS PERIOD   1
  ---------------------------------------------------------------------------------------------------

     CUMULATIVE VOLUME      L**3       RATES FOR THIS TIME STEP      L**3/T          PACKAGE NAME    
     ------------------                 ------------------------                     ----------------

           IN:                                      IN:
           ---                                      ---
              STO-SS =           0.0000                STO-SS =           0.0000     STORAGE                          
              STO-SY =           0.0000                STO-SY =           0.0000     STORAGE                          
                 API =           0.0000                   API =           0.0000     BMI-ET                           

            TOTAL IN =           0.0000              TOTAL IN =           0.0000

          OUT:                                     OUT:
          ----                                     ----
              STO-SS =       1.5721E-19                STO-SS =           0.0000     STORAGE                          
              STO-SY =           0.0000                STO-SY =           0.0000     STORAGE                          
                 API =       1.3196E-20                   API =       6.0000E-02     BMI-ET                           

           TOTAL OUT =       1.7041E-19             TOTAL OUT =       6.0000E-02

            IN - OUT =      -1.7041E-19              IN - OUT =      -6.0000E-02

 PERCENT DISCREPANCY =        -200.00     PERCENT DISCREPANCY =        -200.00




         TIME SUMMARY AT END OF TIME STEP    6 IN STRESS PERIOD    1
                    SECONDS     MINUTES      HOURS       DAYS        YEARS
                    -----------------------------------------------------------
   TIME STEP LENGTH 3.56559E-15 5.94265E-17 9.90441E-19 4.12684E-20 1.12987E-22
 STRESS PERIOD TIME 1.90027E-14 3.16712E-16 5.27853E-18 2.19939E-19 6.02160E-22
         TOTAL TIME 1.90027E-14 3.16712E-16 5.27853E-18 2.19939E-19 6.02160E-22


end timestep


start timestep kper="1" kstp="7" mode="normal"



  VOLUME BUDGET FOR ENTIRE MODEL AT END OF TIME STEP    7, STRESS PERIOD   1
  ---------------------------------------------------------------------------------------------------

     CUMULATIVE VOLUME      L**3       RATES FOR THIS TIME STEP      L**3/T          PACKAGE NAME    
     ------------------                 ------------------------                     ----------------

           IN:                                      IN:
           ---                                      ---
              STO-SS =           0.0000                STO-SS =           0.0000     STORAGE                          
              STO-SY =           0.0000                STO-SY =           0.0000     STORAGE                          
                 API =           0.0000                   API =           0.0000     BMI-ET                           

            TOTAL IN =           0.0000              TOTAL IN =           0.0000

          OUT:                                     OUT:
          ----                                     ----
              STO-SS =       1.5721E-19                STO-SS =           0.0000     STORAGE                          
              STO-SY =           0.0000                STO-SY =           0.0000     STORAGE                          
                 API =       1.5796E-20                   API =       6.0000E-02     BMI-ET                           

           TOTAL OUT =       1.7301E-19             TOTAL OUT =       6.0000E-02

            IN - OUT =      -1.7301E-19              IN - OUT =      -6.0000E-02

 PERCENT DISCREPANCY =        -200.00     PERCENT DISCREPANCY =        -200.00




         TIME SUMMARY AT END OF TIME STEP    7 IN STRESS PERIOD    1
                    SECONDS     MINUTES      HOURS       DAYS        YEARS
                    -----------------------------------------------------------
   TIME STEP LENGTH 3.74387E-15 6.23978E-17 1.03996E-18 4.33318E-20 1.18636E-22
 STRESS PERIOD TIME 2.27466E-14 3.79110E-16 6.31850E-18 2.63271E-19 7.20796E-22
         TOTAL TIME 2.27466E-14 3.79110E-16 6.31850E-18 2.63271E-19 7.20796E-22


end timestep


start timestep kper="1" kstp="8" mode="normal"



  VOLUME BUDGET FOR ENTIRE MODEL AT END OF TIME STEP    8, STRESS PERIOD   1
  ---------------------------------------------------------------------------------------------------

     CUMULATIVE VOLUME      L**3       RATES FOR THIS TIME STEP      L**3/T          PACKAGE NAME    
     ------------------                 ------------------------                     ----------------

           IN:                                      IN:
           ---                                      ---
              STO-SS =           0.0000                STO-SS =           0.0000     STORAGE                          
              STO-SY =           0.0000                STO-SY =           0.0000     STORAGE                          
                 API =           0.0000                   API =           0.0000     BMI-ET                           

            TOTAL IN =           0.0000              TOTAL IN =           0.0000

          OUT:                                     OUT:
          ----                                     ----
              STO-SS =       1.5721E-19                STO-SS =           0.0000     STORAGE                          
              STO-SY =           0.0000                STO-SY =           0.0000     STORAGE                          
                 API =       1.8526E-20                   API =       6.0000E-02     BMI-ET                           

           TOTAL OUT =       1.7574E-19             TOTAL OUT =       6.0000E-02

            IN - OUT =      -1.7574E-19              IN - OUT =      -6.0000E-02

 PERCENT DISCREPANCY =        -200.00     PERCENT DISCREPANCY =        -200.00




         TIME SUMMARY AT END OF TIME STEP    8 IN STRESS PERIOD    1
                    SECONDS     MINUTES      HOURS       DAYS        YEARS
                    -----------------------------------------------------------
   TIME STEP LENGTH 3.93106E-15 6.55177E-17 1.09196E-18 4.54984E-20 1.24568E-22
 STRESS PERIOD TIME 2.66776E-14 4.44627E-16 7.41046E-18 3.08769E-19 8.45364E-22
         TOTAL TIME 2.66776E-14 4.44627E-16 7.41046E-18 3.08769E-19 8.45364E-22


end timestep


start timestep kper="1" kstp="9" mode="normal"



  VOLUME BUDGET FOR ENTIRE MODEL AT END OF TIME STEP    9, STRESS PERIOD   1
  ---------------------------------------------------------------------------------------------------

     CUMULATIVE VOLUME      L**3       RATES FOR THIS TIME STEP      L**3/T          PACKAGE NAME    
     ------------------                 ------------------------                     ----------------

           IN:                                      IN:
           ---                                      ---
              STO-SS =           0.0000                STO-SS =           0.0000     STORAGE                          
              STO-SY =           0.0000                STO-SY =           0.0000     STORAGE                          
                 API =           0.0000                   API =           0.0000     BMI-ET                           

            TOTAL IN =           0.0000              TOTAL IN =           0.0000

          OUT:                                     OUT:
          ----                                     ----
              STO-SS =       1.5721E-19                STO-SS =           0.0000     STORAGE                          
              STO-SY =           0.0000                STO-SY =           0.0000     STORAGE                          
                 API =       2.1393E-20                   API =       6.0000E-02     BMI-ET                           

           TOTAL OUT =       1.7861E-19             TOTAL OUT =       6.0000E-02

            IN - OUT =      -1.7861E-19              IN - OUT =      -6.0000E-02

 PERCENT DISCREPANCY =        -200.00     PERCENT DISCREPANCY =        -200.00




         TIME SUMMARY AT END OF TIME STEP    9 IN STRESS PERIOD    1
                    SECONDS     MINUTES      HOURS       DAYS        YEARS
                    -----------------------------------------------------------
   TIME STEP LENGTH 4.12761E-15 6.87936E-17 1.14656E-18 4.77733E-20 1.30796E-22
 STRESS PERIOD TIME 3.08053E-14 5.13421E-16 8.55702E-18 3.56542E-19 9.76160E-22
         TOTAL TIME 3.08053E-14 5.13421E-16 8.55702E-18 3.56542E-19 9.76160E-22


end timestep


start timestep kper="1" kstp="10" mode="normal"



  VOLUME BUDGET FOR ENTIRE MODEL AT END OF TIME STEP   10, STRESS PERIOD   1
  ---------------------------------------------------------------------------------------------------

     CUMULATIVE VOLUME      L**3       RATES FOR THIS TIME STEP      L**3/T          PACKAGE NAME    
     ------------------                 ------------------------                     ----------------

           IN:                                      IN:
           ---                                      ---
              STO-SS =           0.0000                STO-SS =           0.0000     STORAGE                          
              STO-SY =           0.0000                STO-SY =           0.0000     STORAGE                          
                 API =           0.0000                   API =           0.0000     BMI-ET                           

            TOTAL IN =           0.0000              TOTAL IN =           0.0000

          OUT:                                     OUT:
          ----                                     ----
              STO-SS =       1.5721E-19                STO-SS =           0.0000     STORAGE                          
              STO-SY =           0.0000                STO-SY =           0.0000     STORAGE                          
                 API =       2.4402E-20                   API =       6.0000E-02     BMI-ET                           

           TOTAL OUT =       1.8162E-19             TOTAL OUT =       6.0000E-02

            IN - OUT =      -1.8162E-19              IN - OUT =      -6.0000E-02

 PERCENT DISCREPANCY =        -200.00     PERCENT DISCREPANCY =        -200.00




         TIME SUMMARY AT END OF TIME STEP   10 IN STRESS PERIOD    1
                    SECONDS     MINUTES      HOURS       DAYS        YEARS
                    -----------------------------------------------------------
   TIME STEP LENGTH 4.33399E-15 7.22332E-17 1.20389E-18 5.01620E-20 1.37336E-22
 STRESS PERIOD TIME 3.51393E-14 5.85654E-16 9.76090E-18 4.06704E-19 1.11350E-21
         TOTAL TIME 3.51393E-14 5.85654E-16 9.76090E-18 4.06704E-19 1.11350E-21


end timestep


start timestep kper="1" kstp="11" mode="normal"



  VOLUME BUDGET FOR ENTIRE MODEL AT END OF TIME STEP   11, STRESS PERIOD   1
  ---------------------------------------------------------------------------------------------------

     CUMULATIVE VOLUME      L**3       RATES FOR THIS TIME STEP      L**3/T          PACKAGE NAME    
     ------------------                 ------------------------                     ----------------

           IN:                                      IN:
           ---                                      ---
              STO-SS =           0.0000                STO-SS =           0.0000     STORAGE                          
              STO-SY =           0.0000                STO-SY =           0.0000     STORAGE                          
                 API =           0.0000                   API =           0.0000     BMI-ET                           

            TOTAL IN =           0.0000              TOTAL IN =           0.0000

          OUT:                                     OUT:
          ----                                     ----
              STO-SS =       1.5721E-19                STO-SS =           0.0000     STORAGE                          
              STO-SY =           0.0000                STO-SY =           0.0000     STORAGE                          
                 API =       2.7562E-20                   API =       6.0000E-02     BMI-ET                           

           TOTAL OUT =       1.8478E-19             TOTAL OUT =       6.0000E-02

            IN - OUT =      -1.8478E-19              IN - OUT =      -6.0000E-02

 PERCENT DISCREPANCY =        -200.00     PERCENT DISCREPANCY =        -200.00




         TIME SUMMARY AT END OF TIME STEP   11 IN STRESS PERIOD    1
                    SECONDS     MINUTES      HOURS       DAYS        YEARS
                    -----------------------------------------------------------
   TIME STEP LENGTH 4.55069E-15 7.58449E-17 1.26408E-18 5.26701E-20 1.44203E-22
 STRESS PERIOD TIME 3.96899E-14 6.61499E-16 1.10250E-17 4.59374E-19 1.25770E-21
         TOTAL TIME 3.96899E-14 6.61499E-16 1.10250E-17 4.59374E-19 1.25770E-21


end timestep


start timestep kper="1" kstp="12" mode="normal"



  VOLUME BUDGET FOR ENTIRE MODEL AT END OF TIME STEP   12, STRESS PERIOD   1
  ---------------------------------------------------------------------------------------------------

     CUMULATIVE VOLUME      L**3       RATES FOR THIS TIME STEP      L**3/T          PACKAGE NAME    
     ------------------                 ------------------------                     ----------------

           IN:                                      IN:
           ---                                      ---
              STO-SS =           0.0000                STO-SS =           0.0000     STORAGE                          
              STO-SY =           0.0000                STO-SY =           0.0000     STORAGE                          
                 API =           0.0000                   API =           0.0000     BMI-ET                           

            TOTAL IN =           0.0000              TOTAL IN =           0.0000

          OUT:                                     OUT:
          ----                                     ----
              STO-SS =       1.5721E-19                STO-SS =           0.0000     STORAGE                          
              STO-SY =           0.0000                STO-SY =           0.0000     STORAGE                          
                 API =       3.0881E-20                   API =       6.0000E-02     BMI-ET                           

           TOTAL OUT =       1.8809E-19             TOTAL OUT =       6.0000E-02

            IN - OUT =      -1.8809E-19              IN - OUT =      -6.0000E-02

 PERCENT DISCREPANCY =        -200.00     PERCENT DISCREPANCY =        -200.00




         TIME SUMMARY AT END OF TIME STEP   12 IN STRESS PERIOD    1
                    SECONDS     MINUTES      HOURS       DAYS        YEARS
                    -----------------------------------------------------------
   TIME STEP LENGTH 4.77823E-15 7.96372E-17 1.32729E-18 5.53036E-20 1.51413E-22
 STRESS PERIOD TIME 4.44682E-14 7.41136E-16 1.23523E-17 5.14678E-19 1.40911E-21
         TOTAL TIME 4.44682E-14 7.41136E-16 1.23523E-17 5.14678E-19 1.40911E-21


end timestep


start timestep kper="1" kstp="13" mode="normal"



  VOLUME BUDGET FOR ENTIRE MODEL AT END OF TIME STEP   13, STRESS PERIOD   1
  ---------------------------------------------------------------------------------------------------

     CUMULATIVE VOLUME      L**3       RATES FOR THIS TIME STEP      L**3/T          PACKAGE NAME    
     ------------------                 ------------------------                     ----------------

           IN:                                      IN:
           ---                                      ---
              STO-SS =           0.0000                STO-SS =           0.0000     STORAGE                          
              STO-SY =           0.0000                STO-SY =           0.0000     STORAGE                          
                 API =           0.0000                   API =           0.0000     BMI-ET                           

            TOTAL IN =           0.0000              TOTAL IN =           0.0000

          OUT:                                     OUT:
          ----                                     ----
              STO-SS =       1.5721E-19                STO-SS =           0.0000     STORAGE                          
              STO-SY =           0.0000                STO-SY =           0.0000     STORAGE                          
                 API =       3.4365E-20                   API =       6.0000E-02     BMI-ET                           

           TOTAL OUT =       1.9158E-19             TOTAL OUT =       6.0000E-02

            IN - OUT =      -1.9158E-19              IN - OUT =      -6.0000E-02

 PERCENT DISCREPANCY =        -200.00     PERCENT DISCREPANCY =        -200.00




         TIME SUMMARY AT END OF TIME STEP   13 IN STRESS PERIOD    1
                    SECONDS     MINUTES      HOURS       DAYS        YEARS
                    -----------------------------------------------------------
   TIME STEP LENGTH 5.01714E-15 8.36190E-17 1.39365E-18 5.80688E-20 1.58984E-22
 STRESS PERIOD TIME 4.94853E-14 8.24755E-16 1.37459E-17 5.72747E-19 1.56810E-21
         TOTAL TIME 4.94853E-14 8.24755E-16 1.37459E-17 5.72747E-19 1.56810E-21


end timestep


start timestep kper="1" kstp="14" mode="normal"



  VOLUME BUDGET FOR ENTIRE MODEL AT END OF TIME STEP   14, STRESS PERIOD   1
  ---------------------------------------------------------------------------------------------------

     CUMULATIVE VOLUME      L**3       RATES FOR THIS TIME STEP      L**3/T          PACKAGE NAME    
     ------------------                 ------------------------                     ----------------

           IN:                                      IN:
           ---                                      ---
              STO-SS =       1.2194E-19                STO-SS =           2.0000     STORAGE                          
              STO-SY =           0.0000                STO-SY =           0.0000     STORAGE                          
                 API =           0.0000                   API =           0.0000     BMI-ET                           

            TOTAL IN =       1.2194E-19              TOTAL IN =           2.0000

          OUT:                                     OUT:
          ----                                     ----
              STO-SS =       4.0110E-19                STO-SS =           4.0000     STORAGE                          
              STO-SY =           0.0000                STO-SY =           0.0000     STORAGE                          
                 API =       3.8023E-20                   API =       6.0000E-02     BMI-ET                           

           TOTAL OUT =       4.3912E-19             TOTAL OUT =           4.0600

            IN - OUT =      -3.1718E-19              IN - OUT =          -2.0600

 PERCENT DISCREPANCY =        -113.06     PERCENT DISCREPANCY =         -67.99




         TIME SUMMARY AT END OF TIME STEP   14 IN STRESS PERIOD    1
                    SECONDS     MINUTES      HOURS       DAYS        YEARS
                    -----------------------------------------------------------
   TIME STEP LENGTH 5.26800E-15 8.78000E-17 1.46333E-18 6.09722E-20 1.66933E-22
 STRESS PERIOD TIME 5.47533E-14 9.12555E-16 1.52093E-17 6.33719E-19 1.73503E-21
         TOTAL TIME 5.47533E-14 9.12555E-16 1.52093E-17 6.33719E-19 1.73503E-21


end timestep


start timestep kper="1" kstp="15" mode="normal"



  VOLUME BUDGET FOR ENTIRE MODEL AT END OF TIME STEP   15, STRESS PERIOD   1
  ---------------------------------------------------------------------------------------------------

     CUMULATIVE VOLUME      L**3       RATES FOR THIS TIME STEP      L**3/T          PACKAGE NAME    
     ------------------                 ------------------------                     ----------------

           IN:                                      IN:
           ---                                      ---
              STO-SS =       1.2194E-19                STO-SS =           0.0000     STORAGE                          
              STO-SY =           0.0000                STO-SY =           0.0000     STORAGE                          
                 API =           0.0000                   API =           0.0000     BMI-ET                           

            TOTAL IN =       1.2194E-19              TOTAL IN =           0.0000

          OUT:                                     OUT:
          ----                                     ----
              STO-SS =       4.0110E-19                STO-SS =           0.0000     STORAGE                          
              STO-SY =           0.0000                STO-SY =           0.0000     STORAGE                          
                 API =       4.1864E-20                   API =       6.0000E-02     BMI-ET                           

           TOTAL OUT =       4.4297E-19             TOTAL OUT =       6.0000E-02

            IN - OUT =      -3.2102E-19              IN - OUT =      -6.0000E-02

 PERCENT DISCREPANCY =        -113.65     PERCENT DISCREPANCY =        -200.00




         TIME SUMMARY AT END OF TIME STEP   15 IN STRESS PERIOD    1
                    SECONDS     MINUTES      HOURS       DAYS        YEARS
                    -----------------------------------------------------------
   TIME STEP LENGTH 5.53140E-15 9.21900E-17 1.53650E-18 6.40208E-20 1.75279E-22
 STRESS PERIOD TIME 6.02847E-14 1.00475E-15 1.67458E-17 6.97740E-19 1.91031E-21
         TOTAL TIME 6.02847E-14 1.00475E-15 1.67458E-17 6.97740E-19 1.91031E-21


end timestep


start timestep kper="1" kstp="16" mode="normal"



  VOLUME BUDGET FOR ENTIRE MODEL AT END OF TIME STEP   16, STRESS PERIOD   1
  ---------------------------------------------------------------------------------------------------

     CUMULATIVE VOLUME      L**3       RATES FOR THIS TIME STEP      L**3/T          PACKAGE NAME    
     ------------------                 ------------------------                     ----------------

           IN:                                      IN:
           ---                                      ---
              STO-SS =       1.2194E-19                STO-SS =           0.0000     STORAGE                          
              STO-SY =           0.0000                STO-SY =           0.0000     STORAGE                          
                 API =           0.0000                   API =           0.0000     BMI-ET                           

            TOTAL IN =       1.2194E-19              TOTAL IN =           0.0000

          OUT:                                     OUT:
          ----                                     ----
              STO-SS =       4.0110E-19                STO-SS =           0.0000     STORAGE                          
              STO-SY =           0.0000                STO-SY =           0.0000     STORAGE                          
                 API =       4.5898E-20                   API =       6.0000E-02     BMI-ET                           

           TOTAL OUT =       4.4700E-19             TOTAL OUT =       6.0000E-02

            IN - OUT =      -3.2505E-19              IN - OUT =      -6.0000E-02

 PERCENT DISCREPANCY =        -114.27     PERCENT DISCREPANCY =        -200.00




         TIME SUMMARY AT END OF TIME STEP   16 IN STRESS PERIOD    1
                    SECONDS     MINUTES      HOURS       DAYS        YEARS
                    -----------------------------------------------------------
   TIME STEP LENGTH 5.80797E-15 9.67995E-17 1.61332E-18 6.72218E-20 1.84043E-22
 STRESS PERIOD TIME 6.60927E-14 1.10154E-15 1.83591E-17 7.64962E-19 2.09435E-21
         TOTAL TIME 6.60927E-14 1.10154E-15 1.83591E-17 7.64962E-19 2.09435E-21


end timestep


start timestep kper="1" kstp="17" mode="normal"



  VOLUME BUDGET FOR ENTIRE MODEL AT END OF TIME STEP   17, STRESS PERIOD   1
  ---------------------------------------------------------------------------------------------------

     CUMULATIVE VOLUME      L**3       RATES FOR THIS TIME STEP      L**3/T          PACKAGE NAME    
     ------------------                 ------------------------                     ----------------

           IN:                                      IN:
           ---                                      ---
              STO-SS =       1.2194E-19                STO-SS =           0.0000     STORAGE                          
              STO-SY =           0.0000                STO-SY =           0.0000     STORAGE                          
                 API =           0.0000                   API =           0.0000     BMI-ET                           

            TOTAL IN =       1.2194E-19              TOTAL IN =           0.0000

          OUT:                                     OUT:
          ----                                     ----
              STO-SS =       4.0110E-19                STO-SS =           0.0000     STORAGE                          
              STO-SY =           0.0000                STO-SY =           0.0000     STORAGE                          
                 API =       5.0133E-20                   API =       6.0000E-02     BMI-ET                           

           TOTAL OUT =       4.5123E-19             TOTAL OUT =       6.0000E-02

            IN - OUT =      -3.2929E-19              IN - OUT =      -6.0000E-02

 PERCENT DISCREPANCY =        -114.90     PERCENT DISCREPANCY =        -200.00




         TIME SUMMARY AT END OF TIME STEP   17 IN STRESS PERIOD    1
                    SECONDS     MINUTES      HOURS       DAYS        YEARS
                    -----------------------------------------------------------
   TIME STEP LENGTH 6.09837E-15 1.01639E-16 1.69399E-18 7.05829E-20 1.93246E-22
 STRESS PERIOD TIME 7.21910E-14 1.20318E-15 2.00531E-17 8.35545E-19 2.28760E-21
         TOTAL TIME 7.21910E-14 1.20318E-15 2.00531E-17 8.35545E-19 2.28760E-21


end timestep


start timestep kper="1" kstp="18" mode="normal"



  VOLUME BUDGET FOR ENTIRE MODEL AT END OF TIME STEP   18, STRESS PERIOD   1
  ---------------------------------------------------------------------------------------------------

     CUMULATIVE VOLUME      L**3       RATES FOR THIS TIME STEP      L**3/T          PACKAGE NAME    
     ------------------                 ------------------------                     ----------------

           IN:                                      IN:
           ---                                      ---
              STO-SS =       1.2194E-19                STO-SS =           0.0000     STORAGE                          
              STO-SY =           0.0000                STO-SY =           0.0000     STORAGE                          
                 API =           0.0000                   API =           0.0000     BMI-ET                           

            TOTAL IN =       1.2194E-19              TOTAL IN =           0.0000

          OUT:                                     OUT:
          ----                                     ----
              STO-SS =       4.0110E-19                STO-SS =           0.0000     STORAGE                          
              STO-SY =           0.0000                STO-SY =           0.0000     STORAGE                          
                 API =       5.4579E-20                   API =       6.0000E-02     BMI-ET                           

           TOTAL OUT =       4.5568E-19             TOTAL OUT =       6.0000E-02

            IN - OUT =      -3.3374E-19              IN - OUT =      -6.0000E-02

 PERCENT DISCREPANCY =        -115.55     PERCENT DISCREPANCY =        -200.00




         TIME SUMMARY AT END OF TIME STEP   18 IN STRESS PERIOD    1
                    SECONDS     MINUTES      HOURS       DAYS        YEARS
                    -----------------------------------------------------------
   TIME STEP LENGTH 6.40328E-15 1.06721E-16 1.77869E-18 7.41121E-20 2.02908E-22
 STRESS PERIOD TIME 7.85943E-14 1.30991E-15 2.18318E-17 9.09657E-19 2.49050E-21
         TOTAL TIME 7.85943E-14 1.30991E-15 2.18318E-17 9.09657E-19 2.49050E-21


end timestep


start timestep kper="1" kstp="19" mode="normal"



  VOLUME BUDGET FOR ENTIRE MODEL AT END OF TIME STEP   19, STRESS PERIOD   1
  ---------------------------------------------------------------------------------------------------

     CUMULATIVE VOLUME      L**3       RATES FOR THIS TIME STEP      L**3/T          PACKAGE NAME    
     ------------------                 ------------------------                     ----------------

           IN:                                      IN:
           ---                                      ---
              STO-SS =       1.2194E-19                STO-SS =           0.0000     STORAGE                          
              STO-SY =           0.0000                STO-SY =           0.0000     STORAGE                          
                 API =           0.0000                   API =           0.0000     BMI-ET                           

            TOTAL IN =       1.2194E-19              TOTAL IN =           0.0000

          OUT:                                     OUT:
          ----                                     ----
              STO-SS =       4.0110E-19                STO-SS =           0.0000     STORAGE                          
              STO-SY =           0.0000                STO-SY =           0.0000     STORAGE                          
                 API =       5.9248E-20                   API =       6.0000E-02     BMI-ET                           

           TOTAL OUT =       4.6035E-19             TOTAL OUT =       6.0000E-02

            IN - OUT =      -3.3841E-19              IN - OUT =      -6.0000E-02

 PERCENT DISCREPANCY =        -116.23     PERCENT DISCREPANCY =        -200.00




         TIME SUMMARY AT END OF TIME STEP   19 IN STRESS PERIOD    1
                    SECONDS     MINUTES      HOURS       DAYS        YEARS
                    -----------------------------------------------------------
   TIME STEP LENGTH 6.72345E-15 1.12057E-16 1.86762E-18 7.78177E-20 2.13053E-22
 STRESS PERIOD TIME 8.53178E-14 1.42196E-15 2.36994E-17 9.87474E-19 2.70356E-21
         TOTAL TIME 8.53178E-14 1.42196E-15 2.36994E-17 9.87474E-19 2.70356E-21


end timestep


start timestep kper="1" kstp="20" mode="normal"



  VOLUME BUDGET FOR ENTIRE MODEL AT END OF TIME STEP   20, STRESS PERIOD   1
  ---------------------------------------------------------------------------------------------------

     CUMULATIVE VOLUME      L**3       RATES FOR THIS TIME STEP      L**3/T          PACKAGE NAME    
     ------------------                 ------------------------                     ----------------

           IN:                                      IN:
           ---                                      ---
              STO-SS =       1.2194E-19                STO-SS =           0.0000     STORAGE                          
              STO-SY =           0.0000                STO-SY =           0.0000     STORAGE                          
                 API =           0.0000                   API =           0.0000     BMI-ET                           

            TOTAL IN =       1.2194E-19              TOTAL IN =           0.0000

          OUT:                                     OUT:
          ----                                     ----
              STO-SS =       4.0110E-19                STO-SS =           0.0000     STORAGE                          
              STO-SY =           0.0000                STO-SY =           0.0000     STORAGE                          
                 API =       6.4151E-20                   API =       6.0000E-02     BMI-ET                           

           TOTAL OUT =       4.6525E-19             TOTAL OUT =       6.0000E-02

            IN - OUT =      -3.4331E-19              IN - OUT =      -6.0000E-02

 PERCENT DISCREPANCY =        -116.93     PERCENT DISCREPANCY =        -200.00




         TIME SUMMARY AT END OF TIME STEP   20 IN STRESS PERIOD    1
                    SECONDS     MINUTES      HOURS       DAYS        YEARS
                    -----------------------------------------------------------
   TIME STEP LENGTH 7.05962E-15 1.17660E-16 1.96101E-18 8.17086E-20 2.23706E-22
 STRESS PERIOD TIME 9.23774E-14 1.53962E-15 2.56604E-17 1.06918E-18 2.92726E-21
         TOTAL TIME 9.23774E-14 1.53962E-15 2.56604E-17 1.06918E-18 2.92726E-21


end timestep


start timestep kper="1" kstp="21" mode="normal"



  VOLUME BUDGET FOR ENTIRE MODEL AT END OF TIME STEP   21, STRESS PERIOD   1
  ---------------------------------------------------------------------------------------------------

     CUMULATIVE VOLUME      L**3       RATES FOR THIS TIME STEP      L**3/T          PACKAGE NAME    
     ------------------                 ------------------------                     ----------------

           IN:                                      IN:
           ---                                      ---
              STO-SS =       1.2194E-19                STO-SS =           0.0000     STORAGE                          
              STO-SY =           0.0000                STO-SY =           0.0000     STORAGE                          
                 API =           0.0000                   API =           0.0000     BMI-ET                           

            TOTAL IN =       1.2194E-19              TOTAL IN =           0.0000

          OUT:                                     OUT:
          ----                                     ----
              STO-SS =       7.4428E-19                STO-SS =           4.0000     STORAGE                          
              STO-SY =           0.0000                STO-SY =           0.0000     STORAGE                          
                 API =       6.9299E-20                   API =       6.0000E-02     BMI-ET                           

           TOTAL OUT =       8.1358E-19             TOTAL OUT =           4.0600

            IN - OUT =      -6.9163E-19              IN - OUT =          -4.0600

 PERCENT DISCREPANCY =        -147.86     PERCENT DISCREPANCY =        -200.00




         TIME SUMMARY AT END OF TIME STEP   21 IN STRESS PERIOD    1
                    SECONDS     MINUTES      HOURS       DAYS        YEARS
                    -----------------------------------------------------------
   TIME STEP LENGTH 7.41260E-15 1.23543E-16 2.05906E-18 8.57940E-20 2.34891E-22
 STRESS PERIOD TIME 9.97900E-14 1.66317E-15 2.77194E-17 1.15498E-18 3.16215E-21
         TOTAL TIME 9.97900E-14 1.66317E-15 2.77194E-17 1.15498E-18 3.16215E-21


end timestep


start timestep kper="1" kstp="22" mode="normal"



  VOLUME BUDGET FOR ENTIRE MODEL AT END OF TIME STEP   22, STRESS PERIOD   1
  ---------------------------------------------------------------------------------------------------

     CUMULATIVE VOLUME      L**3       RATES FOR THIS TIME STEP      L**3/T          PACKAGE NAME    
     ------------------                 ------------------------                     ----------------

           IN:                                      IN:
           ---                                      ---
              STO-SS =       2.1203E-19                STO-SS =           1.0000     STORAGE                          
              STO-SY =           0.0000                STO-SY =           0.0000     STORAGE                          
                 API =           0.0000                   API =           0.0000     BMI-ET                           

            TOTAL IN =       2.1203E-19              TOTAL IN =           1.0000

          OUT:                                     OUT:
          ----                                     ----
              STO-SS =       8.3436E-19                STO-SS =           1.0000     STORAGE                          
              STO-SY =           0.0000                STO-SY =           0.0000     STORAGE                          
                 API =       7.4704E-20                   API =       6.0000E-02     BMI-ET                           

           TOTAL OUT =       9.0906E-19             TOTAL OUT =           1.0600

            IN - OUT =      -6.9704E-19              IN - OUT =      -6.0000E-02

 PERCENT DISCREPANCY =        -124.35     PERCENT DISCREPANCY =          -5.83




         TIME SUMMARY AT END OF TIME STEP   22 IN STRESS PERIOD    1
                    SECONDS     MINUTES      HOURS       DAYS        YEARS
                    -----------------------------------------------------------
   TIME STEP LENGTH 7.78323E-15 1.29721E-16 2.16201E-18 9.00837E-20 2.46636E-22
 STRESS PERIOD TIME 1.07573E-13 1.79289E-15 2.98815E-17 1.24506E-18 3.40879E-21
         TOTAL TIME 1.07573E-13 1.79289E-15 2.98815E-17 1.24506E-18 3.40879E-21


end timestep


start timestep kper="1" kstp="23" mode="normal"



  VOLUME BUDGET FOR ENTIRE MODEL AT END OF TIME STEP   23, STRESS PERIOD   1
  ---------------------------------------------------------------------------------------------------

     CUMULATIVE VOLUME      L**3       RATES FOR THIS TIME STEP      L**3/T          PACKAGE NAME    
     ------------------                 ------------------------                     ----------------

           IN:                                      IN:
           ---                                      ---
              STO-SS =       3.0662E-19                STO-SS =           1.0000     STORAGE                          
              STO-SY =           0.0000                STO-SY =           0.0000     STORAGE                          
                 API =           0.0000                   API =           0.0000     BMI-ET                           

            TOTAL IN =       3.0662E-19              TOTAL IN =           1.0000

          OUT:                                     OUT:
          ----                                     ----
              STO-SS =       8.3436E-19                STO-SS =           0.0000     STORAGE                          
              STO-SY =           0.0000                STO-SY =           0.0000     STORAGE                          
                 API =       8.0379E-20                   API =       6.0000E-02     BMI-ET                           

           TOTAL OUT =       9.1474E-19             TOTAL OUT =       6.0000E-02

            IN - OUT =      -6.0812E-19              IN - OUT =           0.9400

 PERCENT DISCREPANCY =         -99.58     PERCENT DISCREPANCY =         177.36




         TIME SUMMARY AT END OF TIME STEP   23 IN STRESS PERIOD    1
                    SECONDS     MINUTES      HOURS       DAYS        YEARS
                    -----------------------------------------------------------
   TIME STEP LENGTH 8.17239E-15 1.36207E-16 2.27011E-18 9.45879E-20 2.58968E-22
 STRESS PERIOD TIME 1.15746E-13 1.92909E-15 3.21516E-17 1.33965E-18 3.66776E-21
         TOTAL TIME 1.15746E-13 1.92909E-15 3.21516E-17 1.33965E-18 3.66776E-21


end timestep


start timestep kper="1" kstp="24" mode="normal"



  VOLUME BUDGET FOR ENTIRE MODEL AT END OF TIME STEP   24, STRESS PERIOD   1
  ---------------------------------------------------------------------------------------------------

     CUMULATIVE VOLUME      L**3       RATES FOR THIS TIME STEP      L**3/T          PACKAGE NAME    
     ------------------                 ------------------------                     ----------------

           IN:                                      IN:
           ---                                      ---
              STO-SS =       5.0525E-19                STO-SS =           2.0000     STORAGE                          
              STO-SY =           0.0000                STO-SY =           0.0000     STORAGE                          
                 API =           0.0000                   API =           0.0000     BMI-ET                           

            TOTAL IN =       5.0525E-19              TOTAL IN =           2.0000

          OUT:                                     OUT:
          ----                                     ----
              STO-SS =       1.1323E-18                STO-SS =           3.0000     STORAGE                          
              STO-SY =           0.0000                STO-SY =           0.0000     STORAGE                          
                 API =       8.6338E-20                   API =       6.0000E-02     BMI-ET                           

           TOTAL OUT =       1.2187E-18             TOTAL OUT =           3.0600

            IN - OUT =      -7.1340E-19              IN - OUT =          -1.0600

 PERCENT DISCREPANCY =         -82.77     PERCENT DISCREPANCY =         -41.90




         TIME SUMMARY AT END OF TIME STEP   24 IN STRESS PERIOD    1
                    SECONDS     MINUTES      HOURS       DAYS        YEARS
                    -----------------------------------------------------------
   TIME STEP LENGTH 8.58101E-15 1.43017E-16 2.38361E-18 9.93173E-20 2.71916E-22
 STRESS PERIOD TIME 1.24327E-13 2.07211E-15 3.45352E-17 1.43897E-18 3.93967E-21
         TOTAL TIME 1.24327E-13 2.07211E-15 3.45352E-17 1.43897E-18 3.93967E-21


end timestep


start timestep kper="1" kstp="25" mode="normal"



  VOLUME BUDGET FOR ENTIRE MODEL AT END OF TIME STEP   25, STRESS PERIOD   1
  ---------------------------------------------------------------------------------------------------

     CUMULATIVE VOLUME      L**3       RATES FOR THIS TIME STEP      L**3/T          PACKAGE NAME    
     ------------------                 ------------------------                     ----------------

           IN:                                      IN:
           ---                                      ---
              STO-SS =       8.1810E-19                STO-SS =           3.0000     STORAGE                          
              STO-SY =           0.0000                STO-SY =           0.0000     STORAGE                          
                 API =           0.0000                   API =           0.0000     BMI-ET                           

            TOTAL IN =       8.1810E-19              TOTAL IN =           3.0000

          OUT:                                     OUT:
          ----                                     ----
              STO-SS =       1.1323E-18                STO-SS =           0.0000     STORAGE                          
              STO-SY =           0.0000                STO-SY =           0.0000     STORAGE                          
                 API =       9.2595E-20                   API =       6.0000E-02     BMI-ET                           

           TOTAL OUT =       1.2249E-18             TOTAL OUT =       6.0000E-02

            IN - OUT =      -4.0681E-19              IN - OUT =           2.9400

 PERCENT DISCREPANCY =         -39.82     PERCENT DISCREPANCY =         192.16




         TIME SUMMARY AT END OF TIME STEP   25 IN STRESS PERIOD    1
                    SECONDS     MINUTES      HOURS       DAYS        YEARS
                    -----------------------------------------------------------
   TIME STEP LENGTH 9.01006E-15 1.50168E-16 2.50280E-18 1.04283E-19 2.85512E-22
 STRESS PERIOD TIME 1.33337E-13 2.22228E-15 3.70380E-17 1.54325E-18 4.22519E-21
         TOTAL TIME 1.33337E-13 2.22228E-15 3.70380E-17 1.54325E-18 4.22519E-21


end timestep


start timestep kper="1" kstp="26" mode="normal"



  VOLUME BUDGET FOR ENTIRE MODEL AT END OF TIME STEP   26, STRESS PERIOD   1
  ---------------------------------------------------------------------------------------------------

     CUMULATIVE VOLUME      L**3       RATES FOR THIS TIME STEP      L**3/T          PACKAGE NAME    
     ------------------                 ------------------------                     ----------------

           IN:                                      IN:
           ---                                      ---
              STO-SS =       8.1810E-19                STO-SS =           0.0000     STORAGE                          
              STO-SY =           0.0000                STO-SY =           0.0000     STORAGE                          
                 API =           0.0000                   API =           0.0000     BMI-ET                           

            TOTAL IN =       8.1810E-19              TOTAL IN =           0.0000

          OUT:                                     OUT:
          ----                                     ----
              STO-SS =       1.2418E-18                STO-SS =           1.0000     STORAGE                          
              STO-SY =           0.0000                STO-SY =           0.0000     STORAGE                          
                 API =       9.9165E-20                   API =       6.0000E-02     BMI-ET                           

           TOTAL OUT =       1.3410E-18             TOTAL OUT =           1.0600

            IN - OUT =      -5.2288E-19              IN - OUT =          -1.0600

 PERCENT DISCREPANCY =         -48.44     PERCENT DISCREPANCY =        -200.00




         TIME SUMMARY AT END OF TIME STEP   26 IN STRESS PERIOD    1
                    SECONDS     MINUTES      HOURS       DAYS        YEARS
                    -----------------------------------------------------------
   TIME STEP LENGTH 9.46057E-15 1.57676E-16 2.62794E-18 1.09497E-19 2.99787E-22
 STRESS PERIOD TIME 1.42797E-13 2.37995E-15 3.96659E-17 1.65275E-18 4.52497E-21
         TOTAL TIME 1.42797E-13 2.37995E-15 3.96659E-17 1.65275E-18 4.52497E-21


end timestep


start timestep kper="1" kstp="27" mode="normal"



  VOLUME BUDGET FOR ENTIRE MODEL AT END OF TIME STEP   27, STRESS PERIOD   1
  ---------------------------------------------------------------------------------------------------

     CUMULATIVE VOLUME      L**3       RATES FOR THIS TIME STEP      L**3/T          PACKAGE NAME    
     ------------------                 ------------------------                     ----------------

           IN:                                      IN:
           ---                                      ---
              STO-SS =       8.1810E-19                STO-SS =           0.0000     STORAGE                          
              STO-SY =           0.0000                STO-SY =           0.0000     STORAGE                          
                 API =           0.0000                   API =           0.0000     BMI-ET                           

            TOTAL IN =       8.1810E-19              TOTAL IN =           0.0000

          OUT:                                     OUT:
          ----                                     ----
              STO-SS =       1.3568E-18                STO-SS =           1.0000     STORAGE                          
              STO-SY =           0.0000                STO-SY =           0.0000     STORAGE                          
                 API =       1.0606E-19                   API =       6.0000E-02     BMI-ET                           

           TOTAL OUT =       1.4628E-18             TOTAL OUT =           1.0600

            IN - OUT =      -6.4475E-19              IN - OUT =          -1.0600

 PERCENT DISCREPANCY =         -56.53     PERCENT DISCREPANCY =        -200.00




         TIME SUMMARY AT END OF TIME STEP   27 IN STRESS PERIOD    1
                    SECONDS     MINUTES      HOURS       DAYS        YEARS
                    -----------------------------------------------------------
   TIME STEP LENGTH 9.93360E-15 1.65560E-16 2.75933E-18 1.14972E-19 3.14777E-22
 STRESS PERIOD TIME 1.52731E-13 2.54551E-15 4.24252E-17 1.76772E-18 4.83975E-21
         TOTAL TIME 1.52731E-13 2.54551E-15 4.24252E-17 1.76772E-18 4.83975E-21


end timestep


start timestep kper="1" kstp="28" mode="normal"



  VOLUME BUDGET FOR ENTIRE MODEL AT END OF TIME STEP   28, STRESS PERIOD   1
  ---------------------------------------------------------------------------------------------------

     CUMULATIVE VOLUME      L**3       RATES FOR THIS TIME STEP      L**3/T          PACKAGE NAME    
     ------------------                 ------------------------                     ----------------

           IN:                                      IN:
           ---                                      ---
              STO-SS =       8.1810E-19                STO-SS =           0.0000     STORAGE                          
              STO-SY =           0.0000                STO-SY =           0.0000     STORAGE                          
                 API =           0.0000                   API =           0.0000     BMI-ET                           

            TOTAL IN =       8.1810E-19              TOTAL IN =           0.0000

          OUT:                                     OUT:
          ----                                     ----
              STO-SS =       1.3568E-18                STO-SS =           0.0000     STORAGE                          
              STO-SY =           0.0000                STO-SY =           0.0000     STORAGE                          
                 API =       1.1331E-19                   API =       6.0000E-02     BMI-ET                           

           TOTAL OUT =       1.4701E-18             TOTAL OUT =       6.0000E-02

            IN - OUT =      -6.5199E-19              IN - OUT =      -6.0000E-02

 PERCENT DISCREPANCY =         -56.99     PERCENT DISCREPANCY =        -200.00




         TIME SUMMARY AT END OF TIME STEP   28 IN STRESS PERIOD    1
                    SECONDS     MINUTES      HOURS       DAYS        YEARS
                    -----------------------------------------------------------
   TIME STEP LENGTH 1.04303E-14 1.73838E-16 2.89730E-18 1.20721E-19 3.30515E-22
 STRESS PERIOD TIME 1.63161E-13 2.71935E-15 4.53225E-17 1.88844E-18 5.17026E-21
         TOTAL TIME 1.63161E-13 2.71935E-15 4.53225E-17 1.88844E-18 5.17026E-21


end timestep


start timestep kper="1" kstp="29" mode="normal"



  VOLUME BUDGET FOR ENTIRE MODEL AT END OF TIME STEP   29, STRESS PERIOD   1
  ---------------------------------------------------------------------------------------------------

     CUMULATIVE VOLUME      L**3       RATES FOR THIS TIME STEP      L**3/T          PACKAGE NAME    
     ------------------                 ------------------------                     ----------------

           IN:                                      IN:
           ---                                      ---
              STO-SS =       8.1810E-19                STO-SS =           0.0000     STORAGE                          
              STO-SY =           0.0000                STO-SY =           0.0000     STORAGE                          
                 API =           0.0000                   API =           0.0000     BMI-ET                           

            TOTAL IN =       8.1810E-19              TOTAL IN =           0.0000

          OUT:                                     OUT:
          ----                                     ----
              STO-SS =       1.7371E-18                STO-SS =           3.0000     STORAGE                          
              STO-SY =           0.0000                STO-SY =           0.0000     STORAGE                          
                 API =       1.2091E-19                   API =       6.0000E-02     BMI-ET                           

           TOTAL OUT =       1.8580E-18             TOTAL OUT =           3.0600

            IN - OUT =      -1.0399E-18              IN - OUT =          -3.0600

 PERCENT DISCREPANCY =         -77.72     PERCENT DISCREPANCY =        -200.00




         TIME SUMMARY AT END OF TIME STEP   29 IN STRESS PERIOD    1
                    SECONDS     MINUTES      HOURS       DAYS        YEARS
                    -----------------------------------------------------------
   TIME STEP LENGTH 1.09518E-14 1.82530E-16 3.04216E-18 1.26757E-19 3.47041E-22
 STRESS PERIOD TIME 1.74113E-13 2.90188E-15 4.83647E-17 2.01520E-18 5.51731E-21
         TOTAL TIME 1.74113E-13 2.90188E-15 4.83647E-17 2.01520E-18 5.51731E-21


end timestep


start timestep kper="1" kstp="30" mode="normal"



  VOLUME BUDGET FOR ENTIRE MODEL AT END OF TIME STEP   30, STRESS PERIOD   1
  ---------------------------------------------------------------------------------------------------

     CUMULATIVE VOLUME      L**3       RATES FOR THIS TIME STEP      L**3/T          PACKAGE NAME    
     ------------------                 ------------------------                     ----------------

           IN:                                      IN:
           ---                                      ---
              STO-SS =       1.0843E-18                STO-SS =           2.0000     STORAGE                          
              STO-SY =           0.0000                STO-SY =           0.0000     STORAGE                          
                 API =           0.0000                   API =           0.0000     BMI-ET                           

            TOTAL IN =       1.0843E-18              TOTAL IN =           2.0000

          OUT:                                     OUT:
          ----                                     ----
              STO-SS =       1.7371E-18                STO-SS =           0.0000     STORAGE                          
              STO-SY =           0.0000                STO-SY =           0.0000     STORAGE                          
                 API =       1.2890E-19                   API =       6.0000E-02     BMI-ET                           

           TOTAL OUT =       1.8660E-18             TOTAL OUT =       6.0000E-02

            IN - OUT =      -7.8166E-19              IN - OUT =           1.9400

 PERCENT DISCREPANCY =         -52.99     PERCENT DISCREPANCY =         188.35




         TIME SUMMARY AT END OF TIME STEP   30 IN STRESS PERIOD    1
                    SECONDS     MINUTES      HOURS       DAYS        YEARS
                    -----------------------------------------------------------
   TIME STEP LENGTH 1.14994E-14 1.91656E-16 3.19427E-18 1.33095E-19 3.64393E-22
 STRESS PERIOD TIME 1.85612E-13 3.09354E-15 5.15590E-17 2.14829E-18 5.88170E-21
         TOTAL TIME 1.85612E-13 3.09354E-15 5.15590E-17 2.14829E-18 5.88170E-21


end timestep


start timestep kper="1" kstp="31" mode="normal"



  VOLUME BUDGET FOR ENTIRE MODEL AT END OF TIME STEP   31, STRESS PERIOD   1
  ---------------------------------------------------------------------------------------------------

     CUMULATIVE VOLUME      L**3       RATES FOR THIS TIME STEP      L**3/T          PACKAGE NAME    
     ------------------                 ------------------------                     ----------------

           IN:                                      IN:
           ---                                      ---
              STO-SS =       1.2240E-18                STO-SS =           1.0000     STORAGE                          
              STO-SY =           0.0000                STO-SY =           0.0000     STORAGE                          
                 API =           0.0000                   API =           0.0000     BMI-ET                           

            TOTAL IN =       1.2240E-18              TOTAL IN =           1.0000

          OUT:                                     OUT:
          ----                                     ----
              STO-SS =       1.7371E-18                STO-SS =           0.0000     STORAGE                          
              STO-SY =           0.0000                STO-SY =           0.0000     STORAGE                          
                 API =       1.3728E-19                   API =       6.0000E-02     BMI-ET                           

           TOTAL OUT =       1.8743E-18             TOTAL OUT =       6.0000E-02

            IN - OUT =      -6.5030E-19              IN - OUT =           0.9400

 PERCENT DISCREPANCY =         -41.98     PERCENT DISCREPANCY =         177.36




         TIME SUMMARY AT END OF TIME STEP   31 IN STRESS PERIOD    1
                    SECONDS     MINUTES      HOURS       DAYS        YEARS
                    -----------------------------------------------------------
   TIME STEP LENGTH 1.20743E-14 2.01239E-16 3.35399E-18 1.39749E-19 3.82613E-22
 STRESS PERIOD TIME 1.97687E-13 3.29478E-15 5.49130E-17 2.28804E-18 6.26431E-21
         TOTAL TIME 1.97687E-13 3.29478E-15 5.49130E-17 2.28804E-18 6.26431E-21


end timestep


start timestep kper="1" kstp="32" mode="normal"



  VOLUME BUDGET FOR ENTIRE MODEL AT END OF TIME STEP   32, STRESS PERIOD   1
  ---------------------------------------------------------------------------------------------------

     CUMULATIVE VOLUME      L**3       RATES FOR THIS TIME STEP      L**3/T          PACKAGE NAME    
     ------------------                 ------------------------                     ----------------

           IN:                                      IN:
           ---                                      ---
              STO-SS =       1.3708E-18                STO-SS =           1.0000     STORAGE                          
              STO-SY =           0.0000                STO-SY =           0.0000     STORAGE                          
                 API =           0.0000                   API =           0.0000     BMI-ET                           

            TOTAL IN =       1.3708E-18              TOTAL IN =           1.0000

          OUT:                                     OUT:
          ----                                     ----
              STO-SS =       1.7371E-18                STO-SS =           0.0000     STORAGE                          
              STO-SY =           0.0000                STO-SY =           0.0000     STORAGE                          
                 API =       1.4609E-19                   API =       6.0000E-02     BMI-ET                           

           TOTAL OUT =       1.8831E-18             TOTAL OUT =       6.0000E-02

            IN - OUT =      -5.1236E-19              IN - OUT =           0.9400

 PERCENT DISCREPANCY =         -31.49     PERCENT DISCREPANCY =         177.36




         TIME SUMMARY AT END OF TIME STEP   32 IN STRESS PERIOD    1
                    SECONDS     MINUTES      HOURS       DAYS        YEARS
                    -----------------------------------------------------------
   TIME STEP LENGTH 1.26781E-14 2.11301E-16 3.52168E-18 1.46737E-19 4.01744E-22
 STRESS PERIOD TIME 2.10365E-13 3.50608E-15 5.84346E-17 2.43478E-18 6.66606E-21
         TOTAL TIME 2.10365E-13 3.50608E-15 5.84346E-17 2.43478E-18 6.66606E-21


end timestep


start timestep kper="1" kstp="33" mode="normal"



  VOLUME BUDGET FOR ENTIRE MODEL AT END OF TIME STEP   33, STRESS PERIOD   1
  ---------------------------------------------------------------------------------------------------

     CUMULATIVE VOLUME      L**3       RATES FOR THIS TIME STEP      L**3/T          PACKAGE NAME    
     ------------------                 ------------------------                     ----------------

           IN:                                      IN:
           ---                                      ---
              STO-SS =       1.3708E-18                STO-SS =           0.0000     STORAGE                          
              STO-SY =           0.0000                STO-SY =           0.0000     STORAGE                          
                 API =           0.0000                   API =           0.0000     BMI-ET                           

            TOTAL IN =       1.3708E-18              TOTAL IN =           0.0000

          OUT:                                     OUT:
          ----                                     ----
              STO-SS =       1.7371E-18                STO-SS =           0.0000     STORAGE                          
              STO-SY =           0.0000                STO-SY =           0.0000     STORAGE                          
                 API =       1.5533E-19                   API =       6.0000E-02     BMI-ET                           

           TOTAL OUT =       1.8924E-18             TOTAL OUT =       6.0000E-02

            IN - OUT =      -5.2161E-19              IN - OUT =      -6.0000E-02

 PERCENT DISCREPANCY =         -31.97     PERCENT DISCREPANCY =        -200.00




         TIME SUMMARY AT END OF TIME STEP   33 IN STRESS PERIOD    1
                    SECONDS     MINUTES      HOURS       DAYS        YEARS
                    -----------------------------------------------------------
   TIME STEP LENGTH 1.33120E-14 2.21866E-16 3.69777E-18 1.54074E-19 4.21831E-22
 STRESS PERIOD TIME 2.23677E-13 3.72794E-15 6.21324E-17 2.58885E-18 7.08789E-21
         TOTAL TIME 2.23677E-13 3.72794E-15 6.21324E-17 2.58885E-18 7.08789E-21


end timestep


start timestep kper="1" kstp="34" mode="normal"



  VOLUME BUDGET FOR ENTIRE MODEL AT END OF TIME STEP   34, STRESS PERIOD   1
  ---------------------------------------------------------------------------------------------------

     CUMULATIVE VOLUME      L**3       RATES FOR THIS TIME STEP      L**3/T          PACKAGE NAME    
     ------------------                 ------------------------                     ----------------

           IN:                                      IN:
           ---                                      ---
              STO-SS =       1.3708E-18                STO-SS =           0.0000     STORAGE                          
              STO-SY =           0.0000                STO-SY =           0.0000     STORAGE                          
                 API =           0.0000                   API =           0.0000     BMI-ET                           

            TOTAL IN =       1.3708E-18              TOTAL IN =           0.0000

          OUT:                                     OUT:
          ----                                     ----
              STO-SS =       1.7371E-18                STO-SS =           0.0000     STORAGE                          
              STO-SY =           0.0000                STO-SY =           0.0000     STORAGE                          
                 API =       1.6504E-19                   API =       6.0000E-02     BMI-ET                           

           TOTAL OUT =       1.9021E-18             TOTAL OUT =       6.0000E-02

            IN - OUT =      -5.3132E-19              IN - OUT =      -6.0000E-02

 PERCENT DISCREPANCY =         -32.47     PERCENT DISCREPANCY =        -200.00




         TIME SUMMARY AT END OF TIME STEP   34 IN STRESS PERIOD    1
                    SECONDS     MINUTES      HOURS       DAYS        YEARS
                    -----------------------------------------------------------
   TIME STEP LENGTH 1.39776E-14 2.32959E-16 3.88266E-18 1.61777E-19 4.42922E-22
 STRESS PERIOD TIME 2.37654E-13 3.96090E-15 6.60151E-17 2.75063E-18 7.53081E-21
[...]
   TIME STEP LENGTH 2.65211E+06  44202.      736.70      30.696     8.40401E-02
 STRESS PERIOD TIME 5.56942E+07 9.28237E+05  15471.      644.61      1.7648    
         TOTAL TIME 5.56942E+07 9.28237E+05  15471.      644.61      1.7648    


end timestep


start timestep kper="1" kstp="992" mode="normal"



  VOLUME BUDGET FOR ENTIRE MODEL AT END OF TIME STEP  992, STRESS PERIOD   1
  ---------------------------------------------------------------------------------------------------

     CUMULATIVE VOLUME      L**3       RATES FOR THIS TIME STEP      L**3/T          PACKAGE NAME    
     ------------------                 ------------------------                     ----------------

           IN:                                      IN:
           ---                                      ---
              STO-SS =       1.3121E-02                STO-SS =       2.7088E-06     STORAGE                          
              STO-SY =          16.3221                STO-SY =       8.6182E-03     STORAGE                          
                 API =           0.0000                   API =           0.0000     BMI-ET                           

            TOTAL IN =          16.3352              TOTAL IN =       8.6209E-03

          OUT:                                     OUT:
          ----                                     ----
              STO-SS =       4.6011E-17                STO-SS =           0.0000     STORAGE                          
              STO-SY =           0.0000                STO-SY =           0.0000     STORAGE                          
                 API =          16.3352                   API =       8.6209E-03     BMI-ET                           

           TOTAL OUT =          16.3352             TOTAL OUT =       8.6209E-03

            IN - OUT =      -2.5822E-06              IN - OUT =      -3.5943E-09

 PERCENT DISCREPANCY =          -0.00     PERCENT DISCREPANCY =          -0.00




         TIME SUMMARY AT END OF TIME STEP  992 IN STRESS PERIOD    1
                    SECONDS     MINUTES      HOURS       DAYS        YEARS
                    -----------------------------------------------------------
   TIME STEP LENGTH 2.78471E+06  46412.      773.53      32.230     8.82422E-02
 STRESS PERIOD TIME 5.84789E+07 9.74649E+05  16244.      676.84      1.8531    
         TOTAL TIME 5.84789E+07 9.74649E+05  16244.      676.84      1.8531    


end timestep


start timestep kper="1" kstp="993" mode="normal"



  VOLUME BUDGET FOR ENTIRE MODEL AT END OF TIME STEP  993, STRESS PERIOD   1
  ---------------------------------------------------------------------------------------------------

     CUMULATIVE VOLUME      L**3       RATES FOR THIS TIME STEP      L**3/T          PACKAGE NAME    
     ------------------                 ------------------------                     ----------------

           IN:                                      IN:
           ---                                      ---
              STO-SS =       1.3208E-02                STO-SS =       2.5742E-06     STORAGE                          
              STO-SY =          16.6002                STO-SY =       8.2172E-03     STORAGE                          
                 API =           0.0000                   API =           0.0000     BMI-ET                           

            TOTAL IN =          16.6134              TOTAL IN =       8.2198E-03

          OUT:                                     OUT:
          ----                                     ----
              STO-SS =       4.6011E-17                STO-SS =           0.0000     STORAGE                          
              STO-SY =           0.0000                STO-SY =           0.0000     STORAGE                          
                 API =          16.6134                   API =       8.2198E-03     BMI-ET                           

           TOTAL OUT =          16.6134             TOTAL OUT =       8.2198E-03

            IN - OUT =      -2.7034E-06              IN - OUT =      -3.5817E-09

 PERCENT DISCREPANCY =          -0.00     PERCENT DISCREPANCY =          -0.00




         TIME SUMMARY AT END OF TIME STEP  993 IN STRESS PERIOD    1
                    SECONDS     MINUTES      HOURS       DAYS        YEARS
                    -----------------------------------------------------------
   TIME STEP LENGTH 2.92395E+06  48732.      812.21      33.842     9.26543E-02
 STRESS PERIOD TIME 6.14029E+07 1.02338E+06  17056.      710.68      1.9457    
         TOTAL TIME 6.14029E+07 1.02338E+06  17056.      710.68      1.9457    


end timestep


start timestep kper="1" kstp="994" mode="normal"



  VOLUME BUDGET FOR ENTIRE MODEL AT END OF TIME STEP  994, STRESS PERIOD   1
  ---------------------------------------------------------------------------------------------------

     CUMULATIVE VOLUME      L**3       RATES FOR THIS TIME STEP      L**3/T          PACKAGE NAME    
     ------------------                 ------------------------                     ----------------

           IN:                                      IN:
           ---                                      ---
              STO-SS =       1.3295E-02                STO-SS =       2.4461E-06     STORAGE                          
              STO-SY =          16.8786                STO-SY =       7.8344E-03     STORAGE                          
                 API =           0.0000                   API =           0.0000     BMI-ET                           

            TOTAL IN =          16.8919              TOTAL IN =       7.8368E-03

          OUT:                                     OUT:
          ----                                     ----
              STO-SS =       4.6011E-17                STO-SS =           0.0000     STORAGE                          
              STO-SY =           0.0000                STO-SY =           0.0000     STORAGE                          
                 API =          16.8919                   API =       7.8368E-03     BMI-ET                           

           TOTAL OUT =          16.8919             TOTAL OUT =       7.8368E-03

            IN - OUT =      -2.8301E-06              IN - OUT =      -3.5660E-09

 PERCENT DISCREPANCY =          -0.00     PERCENT DISCREPANCY =          -0.00




         TIME SUMMARY AT END OF TIME STEP  994 IN STRESS PERIOD    1
                    SECONDS     MINUTES      HOURS       DAYS        YEARS
                    -----------------------------------------------------------
   TIME STEP LENGTH 3.07014E+06  51169.      852.82      35.534     9.72870E-02
 STRESS PERIOD TIME 6.44730E+07 1.07455E+06  17909.      746.22      2.0430    
         TOTAL TIME 6.44730E+07 1.07455E+06  17909.      746.22      2.0430    


end timestep


start timestep kper="1" kstp="995" mode="normal"



  VOLUME BUDGET FOR ENTIRE MODEL AT END OF TIME STEP  995, STRESS PERIOD   1
  ---------------------------------------------------------------------------------------------------

     CUMULATIVE VOLUME      L**3       RATES FOR THIS TIME STEP      L**3/T          PACKAGE NAME    
     ------------------                 ------------------------                     ----------------

           IN:                                      IN:
           ---                                      ---
              STO-SS =       1.3382E-02                STO-SS =       2.3242E-06     STORAGE                          
              STO-SY =          17.1573                STO-SY =       7.4691E-03     STORAGE                          
                 API =           0.0000                   API =           0.0000     BMI-ET                           

            TOTAL IN =          17.1706              TOTAL IN =       7.4714E-03

          OUT:                                     OUT:
          ----                                     ----
              STO-SS =       4.6011E-17                STO-SS =           0.0000     STORAGE                          
              STO-SY =           0.0000                STO-SY =           0.0000     STORAGE                          
                 API =          17.1706                   API =       7.4714E-03     BMI-ET                           

           TOTAL OUT =          17.1706             TOTAL OUT =       7.4714E-03

            IN - OUT =      -2.9625E-06              IN - OUT =      -3.5475E-09

 PERCENT DISCREPANCY =          -0.00     PERCENT DISCREPANCY =          -0.00




         TIME SUMMARY AT END OF TIME STEP  995 IN STRESS PERIOD    1
                    SECONDS     MINUTES      HOURS       DAYS        YEARS
                    -----------------------------------------------------------
   TIME STEP LENGTH 3.22365E+06  53728.      895.46      37.311     0.10215    
 STRESS PERIOD TIME 6.76967E+07 1.12828E+06  18805.      783.53      2.1452    
         TOTAL TIME 6.76967E+07 1.12828E+06  18805.      783.53      2.1452    


end timestep


start timestep kper="1" kstp="996" mode="normal"



  VOLUME BUDGET FOR ENTIRE MODEL AT END OF TIME STEP  996, STRESS PERIOD   1
  ---------------------------------------------------------------------------------------------------

     CUMULATIVE VOLUME      L**3       RATES FOR THIS TIME STEP      L**3/T          PACKAGE NAME    
     ------------------                 ------------------------                     ----------------

           IN:                                      IN:
           ---                                      ---
              STO-SS =       1.3469E-02                STO-SS =       2.2083E-06     STORAGE                          
              STO-SY =          17.4362                STO-SY =       7.1204E-03     STORAGE                          
                 API =           0.0000                   API =           0.0000     BMI-ET                           

            TOTAL IN =          17.4497              TOTAL IN =       7.1227E-03

          OUT:                                     OUT:
          ----                                     ----
              STO-SS =       4.6011E-17                STO-SS =           0.0000     STORAGE                          
              STO-SY =           0.0000                STO-SY =           0.0000     STORAGE                          
                 API =          17.4497                   API =       7.1227E-03     BMI-ET                           

           TOTAL OUT =          17.4497             TOTAL OUT =       7.1227E-03

            IN - OUT =      -3.0856E-06              IN - OUT =      -3.1430E-09

 PERCENT DISCREPANCY =          -0.00     PERCENT DISCREPANCY =          -0.00




         TIME SUMMARY AT END OF TIME STEP  996 IN STRESS PERIOD    1
                    SECONDS     MINUTES      HOURS       DAYS        YEARS
                    -----------------------------------------------------------
   TIME STEP LENGTH 3.38483E+06  56414.      940.23      39.176     0.10726    
 STRESS PERIOD TIME 7.10815E+07 1.18469E+06  19745.      822.70      2.2524    
         TOTAL TIME 7.10815E+07 1.18469E+06  19745.      822.70      2.2524    


end timestep


start timestep kper="1" kstp="997" mode="normal"



  VOLUME BUDGET FOR ENTIRE MODEL AT END OF TIME STEP  997, STRESS PERIOD   1
  ---------------------------------------------------------------------------------------------------

     CUMULATIVE VOLUME      L**3       RATES FOR THIS TIME STEP      L**3/T          PACKAGE NAME    
     ------------------                 ------------------------                     ----------------

           IN:                                      IN:
           ---                                      ---
              STO-SS =       1.3555E-02                STO-SS =       2.0980E-06     STORAGE                          
              STO-SY =          17.7154                STO-SY =       6.7878E-03     STORAGE                          
                 API =           0.0000                   API =           0.0000     BMI-ET                           

            TOTAL IN =          17.7290              TOTAL IN =       6.7899E-03

          OUT:                                     OUT:
          ----                                     ----
              STO-SS =       4.6011E-17                STO-SS =           0.0000     STORAGE                          
              STO-SY =           0.0000                STO-SY =           0.0000     STORAGE                          
                 API =          17.7290                   API =       6.7899E-03     BMI-ET                           

           TOTAL OUT =          17.7290             TOTAL OUT =       6.7899E-03

            IN - OUT =      -3.2142E-06              IN - OUT =      -3.1258E-09

 PERCENT DISCREPANCY =          -0.00     PERCENT DISCREPANCY =          -0.00




         TIME SUMMARY AT END OF TIME STEP  997 IN STRESS PERIOD    1
                    SECONDS     MINUTES      HOURS       DAYS        YEARS
                    -----------------------------------------------------------
   TIME STEP LENGTH 3.55407E+06  59235.      987.24      41.135     0.11262    
 STRESS PERIOD TIME 7.46356E+07 1.24393E+06  20732.      863.84      2.3651    
         TOTAL TIME 7.46356E+07 1.24393E+06  20732.      863.84      2.3651    


end timestep


start timestep kper="1" kstp="998" mode="normal"



  VOLUME BUDGET FOR ENTIRE MODEL AT END OF TIME STEP  998, STRESS PERIOD   1
  ---------------------------------------------------------------------------------------------------

     CUMULATIVE VOLUME      L**3       RATES FOR THIS TIME STEP      L**3/T          PACKAGE NAME    
     ------------------                 ------------------------                     ----------------

           IN:                                      IN:
           ---                                      ---
              STO-SS =       1.3641E-02                STO-SS =       1.9932E-06     STORAGE                          
              STO-SY =          17.9949                STO-SY =       6.4704E-03     STORAGE                          
                 API =           0.0000                   API =           0.0000     BMI-ET                           

            TOTAL IN =          18.0085              TOTAL IN =       6.4724E-03

          OUT:                                     OUT:
          ----                                     ----
              STO-SS =       4.6011E-17                STO-SS =           0.0000     STORAGE                          
              STO-SY =           0.0000                STO-SY =           0.0000     STORAGE                          
                 API =          18.0085                   API =       6.4724E-03     BMI-ET                           

           TOTAL OUT =          18.0085             TOTAL OUT =       6.4724E-03

            IN - OUT =      -3.3484E-06              IN - OUT =      -3.1066E-09

 PERCENT DISCREPANCY =          -0.00     PERCENT DISCREPANCY =          -0.00




         TIME SUMMARY AT END OF TIME STEP  998 IN STRESS PERIOD    1
                    SECONDS     MINUTES      HOURS       DAYS        YEARS
                    -----------------------------------------------------------
   TIME STEP LENGTH 3.73178E+06  62196.      1036.6      43.192     0.11825    
 STRESS PERIOD TIME 7.83673E+07 1.30612E+06  21769.      907.03      2.4833    
         TOTAL TIME 7.83673E+07 1.30612E+06  21769.      907.03      2.4833    


end timestep


start timestep kper="1" kstp="999" mode="normal"



  VOLUME BUDGET FOR ENTIRE MODEL AT END OF TIME STEP  999, STRESS PERIOD   1
  ---------------------------------------------------------------------------------------------------

     CUMULATIVE VOLUME      L**3       RATES FOR THIS TIME STEP      L**3/T          PACKAGE NAME    
     ------------------                 ------------------------                     ----------------

           IN:                                      IN:
           ---                                      ---
              STO-SS =       1.3727E-02                STO-SS =       1.8934E-06     STORAGE                          
              STO-SY =          18.2746                STO-SY =       6.1676E-03     STORAGE                          
                 API =           0.0000                   API =           0.0000     BMI-ET                           

            TOTAL IN =          18.2883              TOTAL IN =       6.1695E-03

          OUT:                                     OUT:
          ----                                     ----
              STO-SS =       4.6011E-17                STO-SS =           0.0000     STORAGE                          
              STO-SY =           0.0000                STO-SY =           0.0000     STORAGE                          
                 API =          18.2883                   API =       6.1695E-03     BMI-ET                           

           TOTAL OUT =          18.2883             TOTAL OUT =       6.1695E-03

            IN - OUT =      -3.4882E-06              IN - OUT =      -3.0842E-09

 PERCENT DISCREPANCY =          -0.00     PERCENT DISCREPANCY =          -0.00




         TIME SUMMARY AT END OF TIME STEP  999 IN STRESS PERIOD    1
                    SECONDS     MINUTES      HOURS       DAYS        YEARS
                    -----------------------------------------------------------
   TIME STEP LENGTH 3.91837E+06  65306.      1088.4      45.351     0.12417    
 STRESS PERIOD TIME 8.22857E+07 1.37143E+06  22857.      952.38      2.6075    
         TOTAL TIME 8.22857E+07 1.37143E+06  22857.      952.38      2.6075    


end timestep


start timestep kper="1" kstp="1000" mode="normal"



  VOLUME BUDGET FOR ENTIRE MODEL AT END OF TIME STEP 1000, STRESS PERIOD   1
  ---------------------------------------------------------------------------------------------------

     CUMULATIVE VOLUME      L**3       RATES FOR THIS TIME STEP      L**3/T          PACKAGE NAME    
     ------------------                 ------------------------                     ----------------

           IN:                                      IN:
           ---                                      ---
              STO-SS =       1.3812E-02                STO-SS =       1.7986E-06     STORAGE                          
              STO-SY =          18.5545                STO-SY =       5.8787E-03     STORAGE                          
                 API =           0.0000                   API =           0.0000     BMI-ET                           

            TOTAL IN =          18.5684              TOTAL IN =       5.8805E-03

          OUT:                                     OUT:
          ----                                     ----
              STO-SS =       4.6011E-17                STO-SS =           0.0000     STORAGE                          
              STO-SY =           0.0000                STO-SY =           0.0000     STORAGE                          
                 API =          18.5684                   API =       5.8805E-03     BMI-ET                           

           TOTAL OUT =          18.5684             TOTAL OUT =       5.8805E-03

            IN - OUT =      -3.6339E-06              IN - OUT =      -3.0591E-09

 PERCENT DISCREPANCY =          -0.00     PERCENT DISCREPANCY =          -0.00




         TIME SUMMARY AT END OF TIME STEP 1000 IN STRESS PERIOD    1
                    SECONDS     MINUTES      HOURS       DAYS        YEARS
                    -----------------------------------------------------------
   TIME STEP LENGTH 4.11429E+06  68571.      1142.9      47.619     0.13037    
 STRESS PERIOD TIME 8.64000E+07 1.44000E+06  24000.      1000.0      2.7379    
         TOTAL TIME 8.64000E+07 1.44000E+06  24000.      1000.0      2.7379    


end timestep

