                                   MODFLOW 6
                U.S. GEOLOGICAL SURVEY MODULAR HYDROLOGIC MODEL
                            VERSION 6.6.0 12/20/2024

   MODFLOW 6 compiled Dec 31 2024 17:12:23 with Intel(R) Fortran Intel(R) 64
   Compiler Classic for applications running on Intel(R) 64, Version 2021.7.0
                             Build 20220726_000000

This software has been approved for release by the U.S. Geological 
Survey (USGS). Although the software has been subjected to rigorous 
review, the USGS reserves the right to update the software as needed 
pursuant to further analysis and review. No warranty, expressed or 
implied, is made by the USGS or the U.S. Government as to the 
functionality of the software and related material nor shall the 
fact of release constitute any such warranty. Furthermore, the 
software is released on condition that neither the USGS nor the U.S. 
Government shall be held liable for any damages resulting from its 
authorized or unauthorized use. Also refer to the USGS Water 
Resources Software User Rights Notice for complete use, copyright, 
and distribution information.

 
 MODFLOW runs in SEQUENTIAL mode
 
 Run start date and time (yyyy/mm/dd hh:mm:ss): 2025/02/10 11:28:05
 
 Writing simulation list file: mfsim.lst
 Using Simulation name file: mfsim.nam
 
    Solving:  Stress period:     1    Time step:     1
    Solving:  Stress period:     1    Time step:     2
    Solving:  Stress period:     1    Time step:     3
    Solving:  Stress period:     1    Time step:     4
    Solving:  Stress period:     1    Time step:     5
    Solving:  Stress period:     1    Time step:     6
    Solving:  Stress period:     1    Time step:     7
    Solving:  Stress period:     1    Time step:     8
    Solving:  Stress period:     1    Time step:     9
    Solving:  Stress period:     1    Time step:    10
    Solving:  Stress period:     1    Time step:    11
    Solving:  Stress period:     1    Time step:    12
    Solving:  Stress period:     1    Time step:    13
    Solving:  Stress period:     1    Time step:    14
    Solving:  Stress period:     1    Time step:    15
    Solving:  Stress period:     1    Time step:    16
    Solving:  Stress period:     1    Time step:    17
    Solving:  Stress period:     1    Time step:    18
    Solving:  Stress period:     1    Time step:    19
    Solving:  Stress period:     1    Time step:    20
    Solving:  Stress period:     1    Time step:    21
    Solving:  Stress period:     1    Time step:    22
    Solving:  Stress period:     1    Time step:    23
    Solving:  Stress period:     1    Time step:    24
    Solving:  Stress period:     1    Time step:    25
    Solving:  Stress period:     1    Time step:    26
    Solving:  Stress period:     1    Time step:    27
    Solving:  Stress period:     1    Time step:    28
    Solving:  Stress period:     1    Time step:    29
    Solving:  Stress period:     1    Time step:    30
    Solving:  Stress period:     1    Time step:    31
    Solving:  Stress period:     1    Time step:    32
    Solving:  Stress period:     1    Time step:    33
    Solving:  Stress period:     1    Time step:    34
    Solving:  Stress period:     1    Time step:    35
    Solving:  Stress period:     1    Time step:    36
    Solving:  Stress period:     1    Time step:    37
    Solving:  Stress period:     1    Time step:    38
    Solving:  Stress period:     1    Time step:    39
    Solving:  Stress period:     1    Time step:    40
    Solving:  Stress period:     1    Time step:    41
    Solving:  Stress period:     1    Time step:    42
    Solving:  Stress period:     1    Time step:    43
    Solving:  Stress period:     1    Time step:    44
    Solving:  Stress period:     1    Time step:    45
    Solving:  Stress period:     1    Time step:    46
    Solving:  Stress period:     1    Time step:    47
    Solving:  Stress period:     1    Time step:    48
    Solving:  Stress period:     1    Time step:    49
    Solving:  Stress period:     1    Time step:    50
    Solving:  Stress period:     1    Time step:    51
    Solving:  Stress period:     1    Time step:    52
    Solving:  Stress period:     1    Time step:    53
    Solving:  Stress period:     1    Time step:    54
    Solving:  Stress period:     1    Time step:    55
    Solving:  Stress period:     1    Time step:    56
    Solving:  Stress period:     1    Time step:    57
    Solving:  Stress period:     1    Time step:    58
    Solving:  Stress period:     1    Time step:    59
    Solving:  Stress period:     1    Time step:    60
    Solving:  Stress period:     1    Time step:    61
    Solving:  Stress period:     1    Time step:    62
    Solving:  Stress period:     1    Time step:    63
    Solving:  Stress period:     1    Time step:    64
    Solving:  Stress period:     1    Time step:    65
    Solving:  Stress period:     1    Time step:    66
    Solving:  Stress period:     1    Time step:    67
    Solving:  Stress period:     1    Time step:    68
    Solving:  Stress period:     1    Time step:    69
    Solving:  Stress period:     1    Time step:    70
    Solving:  Stress period:     1    Time step:    71
    Solving:  Stress period:     1    Time step:    72
    Solving:  Stress period:     1    Time step:    73
    Solving:  Stress period:     1    Time step:    74
    Solving:  Stress period:     1    Time step:    75
    Solving:  Stress period:     1    Time step:    76
    Solving:  Stress period:     1    Time step:    77
    Solving:  Stress period:     1    Time step:    78
    Solving:  Stress period:     1    Time step:    79
    Solving:  Stress period:     1    Time step:    80
    Solving:  Stress period:     1    Time step:    81
    Solving:  Stress period:     1    Time step:    82
    Solving:  Stress period:     1    Time step:    83
    Solving:  Stress period:     1    Time step:    84
    Solving:  Stress period:     1    Time step:    85
    Solving:  Stress period:     1    Time step:    86
    Solving:  Stress period:     1    Time step:    87
    Solving:  Stress period:     1    Time step:    88
    Solving:  Stress period:     1    Time step:    89
    Solving:  Stress period:     1    Time step:    90
    Solving:  Stress period:     1    Time step:    91
    Solving:  Stress period:     1    Time step:    92
    Solving:  Stress period:     1    Time step:    93
    Solving:  Stress period:     1    Time step:    94
    Solving:  Stress period:     1    Time step:    95
    Solving:  Stress period:     1    Time step:    96
    Solving:  Stress period:     1    Time step:    97
    Solving:  Stress period:     1    Time step:    98
    Solving:  Stress period:     1    Time step:    99
    Solving:  Stress period:     1    Time step:   100
    Solving:  Stress period:     1    Time step:   101
    Solving:  Stress period:     1    Time step:   102
    Solving:  Stress period:     1    Time step:   103
    Solving:  Stress period:     1    Time step:   104
    Solving:  Stress period:     1    Time step:   105
    Solving:  Stress period:     1    Time step:   106
    Solving:  Stress period:     1    Time step:   107
    Solving:  Stress period:     1    Time step:   108
    Solving:  Stress period:     1    Time step:   109
    Solving:  Stress period:     1    Time step:   110
    Solving:  Stress period:     1    Time step:   111
    Solving:  Stress period:     1    Time step:   112
    Solving:  Stress period:     1    Time step:   113
    Solving:  Stress period:     1    Time step:   114
    Solving:  Stress period:     1    Time step:   115
    Solving:  Stress period:     1    Time step:   116
    Solving:  Stress period:     1    Time step:   117
    Solving:  Stress period:     1    Time step:   118
    Solving:  Stress period:     1    Time step:   119
    Solving:  Stress period:     1    Time step:   120
    Solving:  Stress period:     1    Time step:   121
    Solving:  Stress period:     1    Time step:   122
    Solving:  Stress period:     1    Time step:   123
    Solving:  Stress period:     1    Time step:   124
    Solving:  Stress period:     1    Time step:   125
    Solving:  Stress period:     1    Time step:   126
    Solving:  Stress period:     1    Time step:   127
    Solving:  Stress period:     1    Time step:   128
    Solving:  Stress period:     1    Time step:   129
    Solving:  Stress period:     1    Time step:   130
    Solving:  Stress period:     1    Time step:   131
    Solving:  Stress period:     1    Time step:   132
    Solving:  Stress period:     1    Time step:   133
    Solving:  Stress period:     1    Time step:   134
    Solving:  Stress period:     1    Time step:   135
    Solving:  Stress period:     1    Time step:   136
    Solving:  Stress period:     1    Time step:   137
    Solving:  Stress period:     1    Time step:   138
    Solving:  Stress period:     1    Time step:   139
    Solving:  Stress period:     1    Time step:   140
    Solving:  Stress period:     1    Time step:   141
    Solving:  Stress period:     1    Time step:   142
    Solving:  Stress period:     1    Time step:   143
    Solving:  Stress period:     1    Time step:   144
    Solving:  Stress period:     1    Time step:   145
    Solving:  Stress period:     1    Time step:   146
    Solving:  Stress period:     1    Time step:   147
    Solving:  Stress period:     1    Time step:   148
    Solving:  Stress period:     1    Time step:   149
    Solving:  Stress period:     1    Time step:   150
    Solving:  Stress period:     1    Time step:   151
    Solving:  Stress period:     1    Time step:   152
    Solving:  Stress period:     1    Time step:   153
    Solving:  Stress period:     1    Time step:   154
    Solving:  Stress period:     1    Time step:   155
    Solving:  Stress period:     1    Time step:   156
    Solving:  Stress period:     1    Time step:   157
    Solving:  Stress period:     1    Time step:   158
    Solving:  Stress period:     1    Time step:   159
    Solving:  Stress period:     1    Time step:   160
    Solving:  Stress period:     1    Time step:   161
    Solving:  Stress period:     1    Time step:   162
    Solving:  Stress period:     1    Time step:   163
    Solving:  Stress period:     1    Time step:   164
    Solving:  Stress period:     1    Time step:   165
    Solving:  Stress period:     1    Time step:   166
    Solving:  Stress period:     1    Time step:   167
    Solving:  Stress period:     1    Time step:   168
    Solving:  Stress period:     1    Time step:   169
    Solving:  Stress period:     1    Time step:   170
    Solving:  Stress period:     1    Time step:   171
    Solving:  Stress period:     1    Time step:   172
    Solving:  Stress period:     1    Time step:   173
    Solving:  Stress period:     1    Time step:   174
    Solving:  Stress period:     1    Time step:   175
    Solving:  Stress period:     1    Time step:   176
    Solving:  Stress period:     1    Time step:   177
    Solving:  Stress period:     1    Time step:   178
    Solving:  Stress period:     1    Time step:   179
    Solving:  Stress period:     1    Time step:   180
    Solving:  Stress period:     1    Time step:   181
    Solving:  Stress period:     1    Time step:   182
    Solving:  Stress period:     1    Time step:   183
    Solving:  Stress period:     1    Time step:   184
    Solving:  Stress period:     1    Time step:   185
    Solving:  Stress period:     1    Time step:   186
    Solving:  Stress period:     1    Time step:   187
    Solving:  Stress period:     1    Time step:   188
    Solving:  Stress period:     1    Time step:   189
    Solving:  Stress period:     1    Time step:   190
    Solving:  Stress period:     1    Time step:   191
    Solving:  Stress period:     1    Time step:   192
    Solving:  Stress period:     1    Time step:   193
    Solving:  Stress period:     1    Time step:   194
    Solving:  Stress period:     1    Time step:   195
    Solving:  Stress period:     1    Time step:   196
    Solving:  Stress period:     1    Time step:   197
    Solving:  Stress period:     1    Time step:   198
    Solving:  Stress period:     1    Time step:   199
    Solving:  Stress period:     1    Time step:   200
    Solving:  Stress period:     1    Time step:   201
    Solving:  Stress period:     1    Time step:   202
    Solving:  Stress period:     1    Time step:   203
    Solving:  Stress period:     1    Time step:   204
    Solving:  Stress period:     1    Time step:   205
    Solving:  Stress period:     1    Time step:   206
    Solving:  Stress period:     1    Time step:   207
    Solving:  Stress period:     1    Time step:   208
    Solving:  Stress period:     1    Time step:   209
    Solving:  Stress period:     1    Time step:   210
    Solving:  Stress period:     1    Time step:   211
    Solving:  Stress period:     1    Time step:   212
    Solving:  Stress period:     1    Time step:   213
    Solving:  Stress period:     1    Time step:   214
    Solving:  Stress period:     1    Time step:   215
    Solving:  Stress period:     1    Time step:   216
    Solving:  Stress period:     1    Time step:   217
    Solving:  Stress period:     1    Time step:   218
    Solving:  Stress period:     1    Time step:   219
    Solving:  Stress period:     1    Time step:   220
    Solving:  Stress period:     1    Time step:   221
    Solving:  Stress period:     1    Time step:   222
    Solving:  Stress period:     1    Time step:   223
    Solving:  Stress period:     1    Time step:   224
    Solving:  Stress period:     1    Time step:   225
    Solving:  Stress period:     1    Time step:   226
    Solving:  Stress period:     1    Time step:   227
    Solving:  Stress period:     1    Time step:   228
    Solving:  Stress period:     1    Time step:   229
    Solving:  Stress period:     1    Time step:   230
    Solving:  Stress period:     1    Time step:   231
    Solving:  Stress period:     1    Time step:   232
    Solving:  Stress period:     1    Time step:   233
    Solving:  Stress period:     1    Time step:   234
    Solving:  Stress period:     1    Time step:   235
    Solving:  Stress period:     1    Time step:   236
    Solving:  Stress period:     1    Time step:   237
    Solving:  Stress period:     1    Time step:   238
    Solving:  Stress period:     1    Time step:   239
    Solving:  Stress period:     1    Time step:   240
    Solving:  Stress period:     1    Time step:   241
    Solving:  Stress period:     1    Time step:   242
    Solving:  Stress period:     1    Time step:   243
    Solving:  Stress period:     1    Time step:   244
    Solving:  Stress period:     1    Time step:   245
    Solving:  Stress period:     1    Time step:   246
    Solving:  Stress period:     1    Time step:   247
    Solving:  Stress period:     1    Time step:   248
    Solving:  Stress period:     1    Time step:   249
    Solving:  Stress period:     1    Time step:   250
    Solving:  Stress period:     1    Time step:   251
    Solving:  Stress period:     1    Time step:   252
    Solving:  Stress period:     1    Time step:   253
    Solving:  Stress period:     1    Time step:   254
    Solving:  Stress period:     1    Time step:   255
    Solving:  Stress period:     1    Time step:   256
    Solving:  Stress period:     1    Time step:   257
    Solving:  Stress period:     1    Time step:   258
    Solving:  Stress period:     1    Time step:   259
    Solving:  Stress period:     1    Time step:   260
    Solving:  Stress period:     1    Time step:   261
    Solving:  Stress period:     1    Time step:   262
    Solving:  Stress period:     1    Time step:   263
    Solving:  Stress period:     1    Time step:   264
    Solving:  Stress period:     1    Time step:   265
    Solving:  Stress period:     1    Time step:   266
    Solving:  Stress period:     1    Time step:   267
    Solving:  Stress period:     1    Time step:   268
    Solving:  Stress period:     1    Time step:   269
    Solving:  Stress period:     1    Time step:   270
    Solving:  Stress period:     1    Time step:   271
    Solving:  Stress period:     1    Time step:   272
    Solving:  Stress period:     1    Time step:   273
    Solving:  Stress period:     1    Time step:   274
    Solving:  Stress period:     1    Time step:   275
    Solving:  Stress period:     1    Time step:   276
    Solving:  Stress period:     1    Time step:   277
    Solving:  Stress period:     1    Time step:   278
    Solving:  Stress period:     1    Time step:   279
    Solving:  Stress period:     1    Time step:   280
    Solving:  Stress period:     1    Time step:   281
    Solving:  Stress period:     1    Time step:   282
    Solving:  Stress period:     1    Time step:   283
    Solving:  Stress period:     1    Time step:   284
    Solving:  Stress period:     1    Time step:   285
    Solving:  Stress period:     1    Time step:   286
    Solving:  Stress period:     1    Time step:   287
    Solving:  Stress period:     1    Time step:   288
    Solving:  Stress period:     1    Time step:   289
    Solving:  Stress period:     1    Time step:   290
    Solving:  Stress period:     1    Time step:   291
    Solving:  Stress period:     1    Time step:   292
    Solving:  Stress period:     1    Time step:   293
    Solving:  Stress period:     1    Time step:   294
    Solving:  Stress period:     1    Time step:   295
    Solving:  Stress period:     1    Time step:   296
    Solving:  Stress period:     1    Time step:   297
    Solving:  Stress period:     1    Time step:   298
    Solving:  Stress period:     1    Time step:   299
    Solving:  Stress period:     1    Time step:   300
    Solving:  Stress period:     1    Time step:   301
    Solving:  Stress period:     1    Time step:   302
    Solving:  Stress period:     1    Time step:   303
    Solving:  Stress period:     1    Time step:   304
    Solving:  Stress period:     1    Time step:   305
    Solving:  Stress period:     1    Time step:   306
    Solving:  Stress period:     1    Time step:   307
    Solving:  Stress period:     1    Time step:   308
    Solving:  Stress period:     1    Time step:   309
    Solving:  Stress period:     1    Time step:   310
    Solving:  Stress period:     1    Time step:   311
    Solving:  Stress period:     1    Time step:   312
    Solving:  Stress period:     1    Time step:   313
    Solving:  Stress period:     1    Time step:   314
    Solving:  Stress period:     1    Time step:   315
    Solving:  Stress period:     1    Time step:   316
    Solving:  Stress period:     1    Time step:   317
    Solving:  Stress period:     1    Time step:   318
    Solving:  Stress period:     1    Time step:   319
    Solving:  Stress period:     1    Time step:   320
    Solving:  Stress period:     1    Time step:   321
    Solving:  Stress period:     1    Time step:   322
    Solving:  Stress period:     1    Time step:   323
    Solving:  Stress period:     1    Time step:   324
    Solving:  Stress period:     1    Time step:   325
    Solving:  Stress period:     1    Time step:   326
    Solving:  Stress period:     1    Time step:   327
    Solving:  Stress period:     1    Time step:   328
    Solving:  Stress period:     1    Time step:   329
    Solving:  Stress period:     1    Time step:   330
    Solving:  Stress period:     1    Time step:   331
    Solving:  Stress period:     1    Time step:   332
    Solving:  Stress period:     1    Time step:   333
    Solving:  Stress period:     1    Time step:   334
    Solving:  Stress period:     1    Time step:   335
    Solving:  Stress period:     1    Time step:   336
    Solving:  Stress period:     1    Time step:   337
    Solving:  Stress period:     1    Time step:   338
    Solving:  Stress period:     1    Time step:   339
    Solving:  Stress period:     1    Time step:   340
    Solving:  Stress period:     1    Time step:   341
    Solving:  Stress period:     1    Time step:   342
    Solving:  Stress period:     1    Time step:   343
    Solving:  Stress period:     1    Time step:   344
    Solving:  Stress period:     1    Time step:   345
    Solving:  Stress period:     1    Time step:   346
    Solving:  Stress period:     1    Time step:   347
    Solving:  Stress period:     1    Time step:   348
    Solving:  Stress period:     1    Time step:   349
    Solving:  Stress period:     1    Time step:   350
    Solving:  Stress period:     1    Time step:   351
    Solving:  Stress period:     1    Time step:   352
    Solving:  Stress period:     1    Time step:   353
    Solving:  Stress period:     1    Time step:   354
    Solving:  Stress period:     1    Time step:   355
    Solving:  Stress period:     1    Time step:   356
    Solving:  Stress period:     1    Time step:   357
    Solving:  Stress period:     1    Time step:   358
    Solving:  Stress period:     1    Time step:   359
    Solving:  Stress period:     1    Time step:   360
    Solving:  Stress period:     1    Time step:   361
    Solving:  Stress period:     1    Time step:   362
    Solving:  Stress period:     1    Time step:   363
    Solving:  Stress period:     1    Time step:   364
    Solving:  Stress period:     1    Time step:   365
    Solving:  Stress period:     1    Time step:   366
    Solving:  Stress period:     1    Time step:   367
    Solving:  Stress period:     1    Time step:   368
    Solving:  Stress period:     1    Time step:   369
    Solving:  Stress period:     1    Time step:   370
    Solving:  Stress period:     1    Time step:   371
    Solving:  Stress period:     1    Time step:   372
    Solving:  Stress period:     1    Time step:   373
    Solving:  Stress period:     1    Time step:   374
    Solving:  Stress period:     1    Time step:   375
    Solving:  Stress period:     1    Time step:   376
    Solving:  Stress period:     1    Time step:   377
    Solving:  Stress period:     1    Time step:   378
    Solving:  Stress period:     1    Time step:   379
    Solving:  Stress period:     1    Time step:   380
    Solving:  Stress period:     1    Time step:   381
    Solving:  Stress period:     1    Time step:   382
    Solving:  Stress period:     1    Time step:   383
    Solving:  Stress period:     1    Time step:   384
    Solving:  Stress period:     1    Time step:   385
    Solving:  Stress period:     1    Time step:   386
    Solving:  Stress period:     1    Time step:   387
    Solving:  Stress period:     1    Time step:   388
    Solving:  Stress period:     1    Time step:   389
    Solving:  Stress period:     1    Time step:   390
    Solving:  Stress period:     1    Time step:   391
    Solving:  Stress period:     1    Time step:   392
    Solving:  Stress period:     1    Time step:   393
    Solving:  Stress period:     1    Time step:   394
    Solving:  Stress period:     1    Time step:   395
    Solving:  Stress period:     1    Time step:   396
    Solving:  Stress period:     1    Time step:   397
    Solving:  Stress period:     1    Time step:   398
    Solving:  Stress period:     1    Time step:   399
    Solving:  Stress period:     1    Time step:   400
    Solving:  Stress period:     1    Time step:   401
    Solving:  Stress period:     1    Time step:   402
    Solving:  Stress period:     1    Time step:   403
    Solving:  Stress period:     1    Time step:   404
    Solving:  Stress period:     1    Time step:   405
    Solving:  Stress period:     1    Time step:   406
    Solving:  Stress period:     1    Time step:   407
    Solving:  Stress period:     1    Time step:   408
    Solving:  Stress period:     1    Time step:   409
    Solving:  Stress period:     1    Time step:   410
    Solving:  Stress period:     1    Time step:   411
    Solving:  Stress period:     1    Time step:   412
    Solving:  Stress period:     1    Time step:   413
    Solving:  Stress period:     1    Time step:   414
    Solving:  Stress period:     1    Time step:   415
    Solving:  Stress period:     1    Time step:   416
    Solving:  Stress period:     1    Time step:   417
    Solving:  Stress period:     1    Time step:   418
    Solving:  Stress period:     1    Time step:   419
    Solving:  Stress period:     1    Time step:   420
    Solving:  Stress period:     1    Time step:   421
    Solving:  Stress period:     1    Time step:   422
    Solving:  Stress period:     1    Time step:   423
    Solving:  Stress period:     1    Time step:   424
    Solving:  Stress period:     1    Time step:   425
    Solving:  Stress period:     1    Time step:   426
    Solving:  Stress period:     1    Time step:   427
    Solving:  Stress period:     1    Time step:   428
    Solving:  Stress period:     1    Time step:   429
    Solving:  Stress period:     1    Time step:   430
    Solving:  Stress period:     1    Time step:   431
    Solving:  Stress period:     1    Time step:   432
    Solving:  Stress period:     1    Time step:   433
    Solving:  Stress period:     1    Time step:   434
    Solving:  Stress period:     1    Time step:   435
    Solving:  Stress period:     1    Time step:   436
    Solving:  Stress period:     1    Time step:   437
    Solving:  Stress period:     1    Time step:   438
    Solving:  Stress period:     1    Time step:   439
    Solving:  Stress period:     1    Time step:   440
    Solving:  Stress period:     1    Time step:   441
    Solving:  Stress period:     1    Time step:   442
    Solving:  Stress period:     1    Time step:   443
    Solving:  Stress period:     1    Time step:   444
    Solving:  Stress period:     1    Time step:   445
    Solving:  Stress period:     1    Time step:   446
    Solving:  Stress period:     1    Time step:   447
    Solving:  Stress period:     1    Time step:   448
    Solving:  Stress period:     1    Time step:   449
    Solving:  Stress period:     1    Time step:   450
    Solving:  Stress period:     1    Time step:   451
    Solving:  Stress period:     1    Time step:   452
    Solving:  Stress period:     1    Time step:   453
    Solving:  Stress period:     1    Time step:   454
    Solving:  Stress period:     1    Time step:   455
    Solving:  Stress period:     1    Time step:   456
    Solving:  Stress period:     1    Time step:   457
    Solving:  Stress period:     1    Time step:   458
    Solving:  Stress period:     1    Time step:   459
    Solving:  Stress period:     1    Time step:   460
    Solving:  Stress period:     1    Time step:   461
    Solving:  Stress period:     1    Time step:   462
    Solving:  Stress period:     1    Time step:   463
    Solving:  Stress period:     1    Time step:   464
    Solving:  Stress period:     1    Time step:   465
    Solving:  Stress period:     1    Time step:   466
    Solving:  Stress period:     1    Time step:   467
    Solving:  Stress period:     1    Time step:   468
    Solving:  Stress period:     1    Time step:   469
    Solving:  Stress period:     1    Time step:   470
    Solving:  Stress period:     1    Time step:   471
    Solving:  Stress period:     1    Time step:   472
    Solving:  Stress period:     1    Time step:   473
    Solving:  Stress period:     1    Time step:   474
    Solving:  Stress period:     1    Time step:   475
    Solving:  Stress period:     1    Time step:   476
    Solving:  Stress period:     1    Time step:   477
    Solving:  Stress period:     1    Time step:   478
    Solving:  Stress period:     1    Time step:   479
    Solving:  Stress period:     1    Time step:   480
    Solving:  Stress period:     1    Time step:   481
    Solving:  Stress period:     1    Time step:   482
    Solving:  Stress period:     1    Time step:   483
    Solving:  Stress period:     1    Time step:   484
    Solving:  Stress period:     1    Time step:   485
    Solving:  Stress period:     1    Time step:   486
    Solving:  Stress period:     1    Time step:   487
    Solving:  Stress period:     1    Time step:   488
    Solving:  Stress period:     1    Time step:   489
    Solving:  Stress period:     1    Time step:   490
    Solving:  Stress period:     1    Time step:   491
    Solving:  Stress period:     1    Time step:   492
    Solving:  Stress period:     1    Time step:   493
    Solving:  Stress period:     1    Time step:   494
    Solving:  Stress period:     1    Time step:   495
    Solving:  Stress period:     1    Time step:   496
    Solving:  Stress period:     1    Time step:   497
    Solving:  Stress period:     1    Time step:   498
    Solving:  Stress period:     1    Time step:   499
    Solving:  Stress period:     1    Time step:   500
    Solving:  Stress period:     1    Time step:   501
    Solving:  Stress period:     1    Time step:   502
    Solving:  Stress period:     1    Time step:   503
    Solving:  Stress period:     1    Time step:   504
    Solving:  Stress period:     1    Time step:   505
    Solving:  Stress period:     1    Time step:   506
    Solving:  Stress period:     1    Time step:   507
    Solving:  Stress period:     1    Time step:   508
    Solving:  Stress period:     1    Time step:   509
    Solving:  Stress period:     1    Time step:   510
    Solving:  Stress period:     1    Time step:   511
    Solving:  Stress period:     1    Time step:   512
    Solving:  Stress period:     1    Time step:   513
    Solving:  Stress period:     1    Time step:   514
    Solving:  Stress period:     1    Time step:   515
    Solving:  Stress period:     1    Time step:   516
    Solving:  Stress period:     1    Time step:   517
    Solving:  Stress period:     1    Time step:   518
    Solving:  Stress period:     1    Time step:   519
    Solving:  Stress period:     1    Time step:   520
    Solving:  Stress period:     1    Time step:   521
    Solving:  Stress period:     1    Time step:   522
    Solving:  Stress period:     1    Time step:   523
    Solving:  Stress period:     1    Time step:   524
    Solving:  Stress period:     1    Time step:   525
    Solving:  Stress period:     1    Time step:   526
    Solving:  Stress period:     1    Time step:   527
    Solving:  Stress period:     1    Time step:   528
    Solving:  Stress period:     1    Time step:   529
    Solving:  Stress period:     1    Time step:   530
    Solving:  Stress period:     1    Time step:   531
    Solving:  Stress period:     1    Time step:   532
    Solving:  Stress period:     1    Time step:   533
    Solving:  Stress period:     1    Time step:   534
    Solving:  Stress period:     1    Time step:   535
    Solving:  Stress period:     1    Time step:   536
    Solving:  Stress period:     1    Time step:   537
    Solving:  Stress period:     1    Time step:   538
    Solving:  Stress period:     1    Time step:   539
    Solving:  Stress period:     1    Time step:   540
    Solving:  Stress period:     1    Time step:   541
    Solving:  Stress period:     1    Time step:   542
    Solving:  Stress period:     1    Time step:   543
    Solving:  Stress period:     1    Time step:   544
    Solving:  Stress period:     1    Time step:   545
    Solving:  Stress period:     1    Time step:   546
    Solving:  Stress period:     1    Time step:   547
    Solving:  Stress period:     1    Time step:   548
    Solving:  Stress period:     1    Time step:   549
    Solving:  Stress period:     1    Time step:   550
    Solving:  Stress period:     1    Time step:   551
    Solving:  Stress period:     1    Time step:   552
    Solving:  Stress period:     1    Time step:   553
    Solving:  Stress period:     1    Time step:   554
    Solving:  Stress period:     1    Time step:   555
    Solving:  Stress period:     1    Time step:   556
    Solving:  Stress period:     1    Time step:   557
    Solving:  Stress period:     1    Time step:   558
    Solving:  Stress period:     1    Time step:   559
    Solving:  Stress period:     1    Time step:   560
    Solving:  Stress period:     1    Time step:   561
    Solving:  Stress period:     1    Time step:   562
    Solving:  Stress period:     1    Time step:   563
    Solving:  Stress period:     1    Time step:   564
    Solving:  Stress period:     1    Time step:   565
    Solving:  Stress period:     1    Time step:   566
    Solving:  Stress period:     1    Time step:   567
    Solving:  Stress period:     1    Time step:   568
    Solving:  Stress period:     1    Time step:   569
    Solving:  Stress period:     1    Time step:   570
    Solving:  Stress period:     1    Time step:   571
    Solving:  Stress period:     1    Time step:   572
    Solving:  Stress period:     1    Time step:   573
    Solving:  Stress period:     1    Time step:   574
    Solving:  Stress period:     1    Time step:   575
    Solving:  Stress period:     1    Time step:   576
    Solving:  Stress period:     1    Time step:   577
    Solving:  Stress period:     1    Time step:   578
    Solving:  Stress period:     1    Time step:   579
    Solving:  Stress period:     1    Time step:   580
    Solving:  Stress period:     1    Time step:   581
    Solving:  Stress period:     1    Time step:   582
    Solving:  Stress period:     1    Time step:   583
    Solving:  Stress period:     1    Time step:   584
    Solving:  Stress period:     1    Time step:   585
    Solving:  Stress period:     1    Time step:   586
    Solving:  Stress period:     1    Time step:   587
    Solving:  Stress period:     1    Time step:   588
    Solving:  Stress period:     1    Time step:   589
    Solving:  Stress period:     1    Time step:   590
    Solving:  Stress period:     1    Time step:   591
    Solving:  Stress period:     1    Time step:   592
    Solving:  Stress period:     1    Time step:   593
    Solving:  Stress period:     1    Time step:   594
    Solving:  Stress period:     1    Time step:   595
    Solving:  Stress period:     1    Time step:   596
    Solving:  Stress period:     1    Time step:   597
    Solving:  Stress period:     1    Time step:   598
    Solving:  Stress period:     1    Time step:   599
    Solving:  Stress period:     1    Time step:   600
    Solving:  Stress period:     1    Time step:   601
    Solving:  Stress period:     1    Time step:   602
    Solving:  Stress period:     1    Time step:   603
    Solving:  Stress period:     1    Time step:   604
    Solving:  Stress period:     1    Time step:   605
    Solving:  Stress period:     1    Time step:   606
    Solving:  Stress period:     1    Time step:   607
    Solving:  Stress period:     1    Time step:   608
    Solving:  Stress period:     1    Time step:   609
    Solving:  Stress period:     1    Time step:   610
    Solving:  Stress period:     1    Time step:   611
    Solving:  Stress period:     1    Time step:   612
    Solving:  Stress period:     1    Time step:   613
    Solving:  Stress period:     1    Time step:   614
    Solving:  Stress period:     1    Time step:   615
    Solving:  Stress period:     1    Time step:   616
    Solving:  Stress period:     1    Time step:   617
    Solving:  Stress period:     1    Time step:   618
    Solving:  Stress period:     1    Time step:   619
    Solving:  Stress period:     1    Time step:   620
    Solving:  Stress period:     1    Time step:   621
    Solving:  Stress period:     1    Time step:   622
    Solving:  Stress period:     1    Time step:   623
    Solving:  Stress period:     1    Time step:   624
    Solving:  Stress period:     1    Time step:   625
    Solving:  Stress period:     1    Time step:   626
    Solving:  Stress period:     1    Time step:   627
    Solving:  Stress period:     1    Time step:   628
    Solving:  Stress period:     1    Time step:   629
    Solving:  Stress period:     1    Time step:   630
    Solving:  Stress period:     1    Time step:   631
    Solving:  Stress period:     1    Time step:   632
    Solving:  Stress period:     1    Time step:   633
    Solving:  Stress period:     1    Time step:   634
    Solving:  Stress period:     1    Time step:   635
    Solving:  Stress period:     1    Time step:   636
    Solving:  Stress period:     1    Time step:   637
    Solving:  Stress period:     1    Time step:   638
    Solving:  Stress period:     1    Time step:   639
    Solving:  Stress period:     1    Time step:   640
    Solving:  Stress period:     1    Time step:   641
    Solving:  Stress period:     1    Time step:   642
    Solving:  Stress period:     1    Time step:   643
    Solving:  Stress period:     1    Time step:   644
    Solving:  Stress period:     1    Time step:   645
    Solving:  Stress period:     1    Time step:   646
    Solving:  Stress period:     1    Time step:   647
    Solving:  Stress period:     1    Time step:   648
    Solving:  Stress period:     1    Time step:   649
    Solving:  Stress period:     1    Time step:   650
    Solving:  Stress period:     1    Time step:   651
    Solving:  Stress period:     1    Time step:   652
    Solving:  Stress period:     1    Time step:   653
    Solving:  Stress period:     1    Time step:   654
    Solving:  Stress period:     1    Time step:   655
    Solving:  Stress period:     1    Time step:   656
    Solving:  Stress period:     1    Time step:   657
    Solving:  Stress period:     1    Time step:   658
    Solving:  Stress period:     1    Time step:   659
    Solving:  Stress period:     1    Time step:   660
    Solving:  Stress period:     1    Time step:   661
    Solving:  Stress period:     1    Time step:   662
    Solving:  Stress period:     1    Time step:   663
    Solving:  Stress period:     1    Time step:   664
    Solving:  Stress period:     1    Time step:   665
    Solving:  Stress period:     1    Time step:   666
    Solving:  Stress period:     1    Time step:   667
    Solving:  Stress period:     1    Time step:   668
    Solving:  Stress period:     1    Time step:   669
    Solving:  Stress period:     1    Time step:   670
    Solving:  Stress period:     1    Time step:   671
    Solving:  Stress period:     1    Time step:   672
    Solving:  Stress period:     1    Time step:   673
    Solving:  Stress period:     1    Time step:   674
    Solving:  Stress period:     1    Time step:   675
    Solving:  Stress period:     1    Time step:   676
    Solving:  Stress period:     1    Time step:   677
    Solving:  Stress period:     1    Time step:   678
    Solving:  Stress period:     1    Time step:   679
    Solving:  Stress period:     1    Time step:   680
    Solving:  Stress period:     1    Time step:   681
    Solving:  Stress period:     1    Time step:   682
    Solving:  Stress period:     1    Time step:   683
    Solving:  Stress period:     1    Time step:   684
    Solving:  Stress period:     1    Time step:   685
    Solving:  Stress period:     1    Time step:   686
    Solving:  Stress period:     1    Time step:   687
    Solving:  Stress period:     1    Time step:   688
    Solving:  Stress period:     1    Time step:   689
    Solving:  Stress period:     1    Time step:   690
    Solving:  Stress period:     1    Time step:   691
    Solving:  Stress period:     1    Time step:   692
    Solving:  Stress period:     1    Time step:   693
    Solving:  Stress period:     1    Time step:   694
    Solving:  Stress period:     1    Time step:   695
    Solving:  Stress period:     1    Time step:   696
    Solving:  Stress period:     1    Time step:   697
    Solving:  Stress period:     1    Time step:   698
    Solving:  Stress period:     1    Time step:   699
    Solving:  Stress period:     1    Time step:   700
    Solving:  Stress period:     1    Time step:   701
    Solving:  Stress period:     1    Time step:   702
    Solving:  Stress period:     1    Time step:   703
    Solving:  Stress period:     1    Time step:   704
    Solving:  Stress period:     1    Time step:   705
    Solving:  Stress period:     1    Time step:   706
    Solving:  Stress period:     1    Time step:   707
    Solving:  Stress period:     1    Time step:   708
    Solving:  Stress period:     1    Time step:   709
    Solving:  Stress period:     1    Time step:   710
    Solving:  Stress period:     1    Time step:   711
    Solving:  Stress period:     1    Time step:   712
    Solving:  Stress period:     1    Time step:   713
    Solving:  Stress period:     1    Time step:   714
    Solving:  Stress period:     1    Time step:   715
    Solving:  Stress period:     1    Time step:   716
    Solving:  Stress period:     1    Time step:   717
    Solving:  Stress period:     1    Time step:   718
    Solving:  Stress period:     1    Time step:   719
    Solving:  Stress period:     1    Time step:   720
    Solving:  Stress period:     1    Time step:   721
    Solving:  Stress period:     1    Time step:   722
    Solving:  Stress period:     1    Time step:   723
    Solving:  Stress period:     1    Time step:   724
    Solving:  Stress period:     1    Time step:   725
    Solving:  Stress period:     1    Time step:   726
    Solving:  Stress period:     1    Time step:   727
    Solving:  Stress period:     1    Time step:   728
    Solving:  Stress period:     1    Time step:   729
    Solving:  Stress period:     1    Time step:   730
    Solving:  Stress period:     1    Time step:   731
    Solving:  Stress period:     1    Time step:   732
    Solving:  Stress period:     1    Time step:   733
    Solving:  Stress period:     1    Time step:   734
    Solving:  Stress period:     1    Time step:   735
    Solving:  Stress period:     1    Time step:   736
    Solving:  Stress period:     1    Time step:   737
    Solving:  Stress period:     1    Time step:   738
    Solving:  Stress period:     1    Time step:   739
    Solving:  Stress period:     1    Time step:   740
    Solving:  Stress period:     1    Time step:   741
    Solving:  Stress period:     1    Time step:   742
    Solving:  Stress period:     1    Time step:   743
    Solving:  Stress period:     1    Time step:   744
    Solving:  Stress period:     1    Time step:   745
    Solving:  Stress period:     1    Time step:   746
    Solving:  Stress period:     1    Time step:   747
    Solving:  Stress period:     1    Time step:   748
    Solving:  Stress period:     1    Time step:   749
    Solving:  Stress period:     1    Time step:   750
    Solving:  Stress period:     1    Time step:   751
    Solving:  Stress period:     1    Time step:   752
    Solving:  Stress period:     1    Time step:   753
    Solving:  Stress period:     1    Time step:   754
    Solving:  Stress period:     1    Time step:   755
    Solving:  Stress period:     1    Time step:   756
    Solving:  Stress period:     1    Time step:   757
    Solving:  Stress period:     1    Time step:   758
    Solving:  Stress period:     1    Time step:   759
    Solving:  Stress period:     1    Time step:   760
    Solving:  Stress period:     1    Time step:   761
    Solving:  Stress period:     1    Time step:   762
    Solving:  Stress period:     1    Time step:   763
    Solving:  Stress period:     1    Time step:   764
    Solving:  Stress period:     1    Time step:   765
    Solving:  Stress period:     1    Time step:   766
    Solving:  Stress period:     1    Time step:   767
    Solving:  Stress period:     1    Time step:   768
    Solving:  Stress period:     1    Time step:   769
    Solving:  Stress period:     1    Time step:   770
    Solving:  Stress period:     1    Time step:   771
    Solving:  Stress period:     1    Time step:   772
    Solving:  Stress period:     1    Time step:   773
    Solving:  Stress period:     1    Time step:   774
    Solving:  Stress period:     1    Time step:   775
    Solving:  Stress period:     1    Time step:   776
    Solving:  Stress period:     1    Time step:   777
    Solving:  Stress period:     1    Time step:   778
    Solving:  Stress period:     1    Time step:   779
    Solving:  Stress period:     1    Time step:   780
    Solving:  Stress period:     1    Time step:   781
    Solving:  Stress period:     1    Time step:   782
    Solving:  Stress period:     1    Time step:   783
    Solving:  Stress period:     1    Time step:   784
    Solving:  Stress period:     1    Time step:   785
    Solving:  Stress period:     1    Time step:   786
    Solving:  Stress period:     1    Time step:   787
    Solving:  Stress period:     1    Time step:   788
    Solving:  Stress period:     1    Time step:   789
    Solving:  Stress period:     1    Time step:   790
    Solving:  Stress period:     1    Time step:   791
    Solving:  Stress period:     1    Time step:   792
    Solving:  Stress period:     1    Time step:   793
    Solving:  Stress period:     1    Time step:   794
    Solving:  Stress period:     1    Time step:   795
    Solving:  Stress period:     1    Time step:   796
    Solving:  Stress period:     1    Time step:   797
    Solving:  Stress period:     1    Time step:   798
    Solving:  Stress period:     1    Time step:   799
    Solving:  Stress period:     1    Time step:   800
    Solving:  Stress period:     1    Time step:   801
    Solving:  Stress period:     1    Time step:   802
    Solving:  Stress period:     1    Time step:   803
    Solving:  Stress period:     1    Time step:   804
    Solving:  Stress period:     1    Time step:   805
    Solving:  Stress period:     1    Time step:   806
    Solving:  Stress period:     1    Time step:   807
    Solving:  Stress period:     1    Time step:   808
    Solving:  Stress period:     1    Time step:   809
    Solving:  Stress period:     1    Time step:   810
    Solving:  Stress period:     1    Time step:   811
    Solving:  Stress period:     1    Time step:   812
    Solving:  Stress period:     1    Time step:   813
    Solving:  Stress period:     1    Time step:   814
    Solving:  Stress period:     1    Time step:   815
    Solving:  Stress period:     1    Time step:   816
    Solving:  Stress period:     1    Time step:   817
    Solving:  Stress period:     1    Time step:   818
    Solving:  Stress period:     1    Time step:   819
    Solving:  Stress period:     1    Time step:   820
    Solving:  Stress period:     1    Time step:   821
    Solving:  Stress period:     1    Time step:   822
    Solving:  Stress period:     1    Time step:   823
    Solving:  Stress period:     1    Time step:   824
    Solving:  Stress period:     1    Time step:   825
    Solving:  Stress period:     1    Time step:   826
    Solving:  Stress period:     1    Time step:   827
    Solving:  Stress period:     1    Time step:   828
    Solving:  Stress period:     1    Time step:   829
    Solving:  Stress period:     1    Time step:   830
    Solving:  Stress period:     1    Time step:   831
    Solving:  Stress period:     1    Time step:   832
    Solving:  Stress period:     1    Time step:   833
    Solving:  Stress period:     1    Time step:   834
    Solving:  Stress period:     1    Time step:   835
    Solving:  Stress period:     1    Time step:   836
    Solving:  Stress period:     1    Time step:   837
    Solving:  Stress period:     1    Time step:   838
    Solving:  Stress period:     1    Time step:   839
    Solving:  Stress period:     1    Time step:   840
    Solving:  Stress period:     1    Time step:   841
    Solving:  Stress period:     1    Time step:   842
    Solving:  Stress period:     1    Time step:   843
    Solving:  Stress period:     1    Time step:   844
    Solving:  Stress period:     1    Time step:   845
    Solving:  Stress period:     1    Time step:   846
    Solving:  Stress period:     1    Time step:   847
    Solving:  Stress period:     1    Time step:   848
    Solving:  Stress period:     1    Time step:   849
    Solving:  Stress period:     1    Time step:   850
    Solving:  Stress period:     1    Time step:   851
    Solving:  Stress period:     1    Time step:   852
    Solving:  Stress period:     1    Time step:   853
    Solving:  Stress period:     1    Time step:   854
    Solving:  Stress period:     1    Time step:   855
    Solving:  Stress period:     1    Time step:   856
    Solving:  Stress period:     1    Time step:   857
    Solving:  Stress period:     1    Time step:   858
    Solving:  Stress period:     1    Time step:   859
    Solving:  Stress period:     1    Time step:   860
    Solving:  Stress period:     1    Time step:   861
    Solving:  Stress period:     1    Time step:   862
    Solving:  Stress period:     1    Time step:   863
    Solving:  Stress period:     1    Time step:   864
    Solving:  Stress period:     1    Time step:   865
    Solving:  Stress period:     1    Time step:   866
    Solving:  Stress period:     1    Time step:   867
    Solving:  Stress period:     1    Time step:   868
    Solving:  Stress period:     1    Time step:   869
    Solving:  Stress period:     1    Time step:   870
    Solving:  Stress period:     1    Time step:   871
    Solving:  Stress period:     1    Time step:   872
    Solving:  Stress period:     1    Time step:   873
    Solving:  Stress period:     1    Time step:   874
    Solving:  Stress period:     1    Time step:   875
    Solving:  Stress period:     1    Time step:   876
    Solving:  Stress period:     1    Time step:   877
    Solving:  Stress period:     1    Time step:   878
    Solving:  Stress period:     1    Time step:   879
    Solving:  Stress period:     1    Time step:   880
    Solving:  Stress period:     1    Time step:   881
    Solving:  Stress period:     1    Time step:   882
    Solving:  Stress period:     1    Time step:   883
    Solving:  Stress period:     1    Time step:   884
    Solving:  Stress period:     1    Time step:   885
    Solving:  Stress period:     1    Time step:   886
    Solving:  Stress period:     1    Time step:   887
    Solving:  Stress period:     1    Time step:   888
    Solving:  Stress period:     1    Time step:   889
    Solving:  Stress period:     1    Time step:   890
    Solving:  Stress period:     1    Time step:   891
    Solving:  Stress period:     1    Time step:   892
    Solving:  Stress period:     1    Time step:   893
    Solving:  Stress period:     1    Time step:   894
    Solving:  Stress period:     1    Time step:   895
    Solving:  Stress period:     1    Time step:   896
    Solving:  Stress period:     1    Time step:   897
    Solving:  Stress period:     1    Time step:   898
    Solving:  Stress period:     1    Time step:   899
    Solving:  Stress period:     1    Time step:   900
    Solving:  Stress period:     1    Time step:   901
    Solving:  Stress period:     1    Time step:   902
    Solving:  Stress period:     1    Time step:   903
    Solving:  Stress period:     1    Time step:   904
    Solving:  Stress period:     1    Time step:   905
    Solving:  Stress period:     1    Time step:   906
    Solving:  Stress period:     1    Time step:   907
    Solving:  Stress period:     1    Time step:   908
    Solving:  Stress period:     1    Time step:   909
    Solving:  Stress period:     1    Time step:   910
    Solving:  Stress period:     1    Time step:   911
    Solving:  Stress period:     1    Time step:   912
    Solving:  Stress period:     1    Time step:   913
    Solving:  Stress period:     1    Time step:   914
    Solving:  Stress period:     1    Time step:   915
    Solving:  Stress period:     1    Time step:   916
    Solving:  Stress period:     1    Time step:   917
    Solving:  Stress period:     1    Time step:   918
    Solving:  Stress period:     1    Time step:   919
    Solving:  Stress period:     1    Time step:   920
    Solving:  Stress period:     1    Time step:   921
    Solving:  Stress period:     1    Time step:   922
    Solving:  Stress period:     1    Time step:   923
    Solving:  Stress period:     1    Time step:   924
    Solving:  Stress period:     1    Time step:   925
    Solving:  Stress period:     1    Time step:   926
    Solving:  Stress period:     1    Time step:   927
    Solving:  Stress period:     1    Time step:   928
    Solving:  Stress period:     1    Time step:   929
    Solving:  Stress period:     1    Time step:   930
    Solving:  Stress period:     1    Time step:   931
    Solving:  Stress period:     1    Time step:   932
    Solving:  Stress period:     1    Time step:   933
    Solving:  Stress period:     1    Time step:   934
    Solving:  Stress period:     1    Time step:   935
    Solving:  Stress period:     1    Time step:   936
    Solving:  Stress period:     1    Time step:   937
    Solving:  Stress period:     1    Time step:   938
    Solving:  Stress period:     1    Time step:   939
    Solving:  Stress period:     1    Time step:   940
    Solving:  Stress period:     1    Time step:   941
    Solving:  Stress period:     1    Time step:   942
    Solving:  Stress period:     1    Time step:   943
    Solving:  Stress period:     1    Time step:   944
    Solving:  Stress period:     1    Time step:   945
    Solving:  Stress period:     1    Time step:   946
    Solving:  Stress period:     1    Time step:   947
    Solving:  Stress period:     1    Time step:   948
    Solving:  Stress period:     1    Time step:   949
    Solving:  Stress period:     1    Time step:   950
    Solving:  Stress period:     1    Time step:   951
    Solving:  Stress period:     1    Time step:   952
    Solving:  Stress period:     1    Time step:   953
    Solving:  Stress period:     1    Time step:   954
    Solving:  Stress period:     1    Time step:   955
    Solving:  Stress period:     1    Time step:   956
    Solving:  Stress period:     1    Time step:   957
    Solving:  Stress period:     1    Time step:   958
    Solving:  Stress period:     1    Time step:   959
    Solving:  Stress period:     1    Time step:   960
    Solving:  Stress period:     1    Time step:   961
    Solving:  Stress period:     1    Time step:   962
    Solving:  Stress period:     1    Time step:   963
    Solving:  Stress period:     1    Time step:   964
    Solving:  Stress period:     1    Time step:   965
    Solving:  Stress period:     1    Time step:   966
    Solving:  Stress period:     1    Time step:   967
    Solving:  Stress period:     1    Time step:   968
    Solving:  Stress period:     1    Time step:   969
    Solving:  Stress period:     1    Time step:   970
    Solving:  Stress period:     1    Time step:   971
    Solving:  Stress period:     1    Time step:   972
    Solving:  Stress period:     1    Time step:   973
    Solving:  Stress period:     1    Time step:   974
    Solving:  Stress period:     1    Time step:   975
    Solving:  Stress period:     1    Time step:   976
    Solving:  Stress period:     1    Time step:   977
    Solving:  Stress period:     1    Time step:   978
    Solving:  Stress period:     1    Time step:   979
    Solving:  Stress period:     1    Time step:   980
    Solving:  Stress period:     1    Time step:   981
    Solving:  Stress period:     1    Time step:   982
    Solving:  Stress period:     1    Time step:   983
    Solving:  Stress period:     1    Time step:   984
    Solving:  Stress period:     1    Time step:   985
    Solving:  Stress period:     1    Time step:   986
    Solving:  Stress period:     1    Time step:   987
    Solving:  Stress period:     1    Time step:   988
    Solving:  Stress period:     1    Time step:   989
    Solving:  Stress period:     1    Time step:   990
    Solving:  Stress period:     1    Time step:   991
    Solving:  Stress period:     1    Time step:   992
    Solving:  Stress period:     1    Time step:   993
    Solving:  Stress period:     1    Time step:   994
    Solving:  Stress period:     1    Time step:   995
    Solving:  Stress period:     1    Time step:   996
    Solving:  Stress period:     1    Time step:   997
    Solving:  Stress period:     1    Time step:   998
    Solving:  Stress period:     1    Time step:   999
    Solving:  Stress period:     1    Time step:  1000
 
 Run end date and time (yyyy/mm/dd hh:mm:ss): 2025/02/10 11:28:06
 Elapsed run time:  0.948 Seconds
 
 Normal termination of simulation.
